data/smartds/2018/GSO/rural/scenarios/base_timeseries/opendss/rhs2_1247/rhs2_1247--rdt1264/Lines.dss
New Line.l(r:p1rlv2106-rdt1264lv) Units=km Length=0.0775295 bus1=rdt1264lv.1.2 bus2=p1rlv2106.1.2 switch=n enabled=y phases=2 Linecode=1P_OH_AL_4/0_Zuzara_2

New Line.l(r:p1rlv2107-rdm2111) Units=km Length=0.0824047 bus1=rdm2111.1.2 bus2=p1rlv2107.1.2 switch=n enabled=y phases=2 Linecode=1P_OH_AL_4/0_Zuzara_2

New Line.l(r:rdm2111-rdt1265lv) Units=km Length=0.0179056 bus1=rdt1265lv.1.2 bus2=rdm2111.1.2 switch=n enabled=y phases=2 Linecode=1P_OH_AL_2/0_Rucina_2

New Line.l(r:p1rlv2108-rdm2112) Units=km Length=0.084331 bus1=rdm2112.1.2 bus2=p1rlv2108.1.2 switch=n enabled=y phases=2 Linecode=1P_OH_AL_4/0_Zuzara_2

New Line.l(r:rdm2112-rdt1265lv) Units=km Length=0.0179056 bus1=rdt1265lv.1.2 bus2=rdm2112.1.2 switch=n enabled=y phases=2 Linecode=1P_OH_AL_2/0_Rucina_2

New Line.l(r:p1rlv2109-rdm2113) Units=km Length=0.0841577 bus1=rdm2113.1.2 bus2=p1rlv2109.1.2 switch=n enabled=y phases=2 Linecode=1P_OH_AL_4/0_Zuzara_2

New Line.l(r:rdm2113-rdt1266lv) Units=km Length=0.0156519 bus1=rdt1266lv.1.2 bus2=rdm2113.1.2 switch=n enabled=y phases=2 Linecode=1P_OH_AL_2/0_Rucina_2

New Line.l(r:p1rlv2110-rdm2114) Units=km Length=0.0755836 bus1=rdm2114.1.2 bus2=p1rlv2110.1.2 switch=n enabled=y phases=2 Linecode=1P_OH_AL_4/0_Zuzara_2

New Line.l(r:rdm2114-rdt1266lv) Units=km Length=0.0160231 bus1=rdt1266lv.1.2 bus2=rdm2114.1.2 switch=n enabled=y phases=2 Linecode=1P_OH_AL_2/0_Rucina_2

New Line.l(r:p1rlv2111-rdm2115) Units=km Length=0.035808 bus1=rdm2115.1.2 bus2=p1rlv2111.1.2 switch=n enabled=y phases=2 Linecode=1P_OH_AL_4/0_Zuzara_2

New Line.l(r:rdm2115-rdt1267lv) Units=km Length=0.0183867 bus1=rdt1267lv.1.2 bus2=rdm2115.1.2 switch=n enabled=y phases=2 Linecode=1P_OH_AL_2/0_Rucina_2

New Line.l(r:p1rlv2112-rdm2116) Units=km Length=0.0403217 bus1=rdm2116.1.2 bus2=p1rlv2112.1.2 switch=n enabled=y phases=2 Linecode=1P_OH_AL_4/0_Zuzara_2

New Line.l(r:rdm2116-rdt1267lv) Units=km Length=0.0183937 bus1=rdt1267lv.1.2 bus2=rdm2116.1.2 switch=n enabled=y phases=2 Linecode=1P_OH_AL_2/0_Rucina_2

New Line.l(r:p1rlv2114-rdt1268lv) Units=km Length=0.0797017 bus1=rdt1268lv.1.2 bus2=p1rlv2114.1.2 switch=n enabled=y phases=2 Linecode=1P_OH_AL_4/0_Zuzara_2

New Line.l(r:p1rlv2113-rdm2117) Units=km Length=0.0691835 bus1=rdm2117.1.2 bus2=p1rlv2113.1.2 switch=n enabled=y phases=2 Linecode=1P_OH_AL_4/0_Zuzara_2

New Line.l(r:rdm2117-rdt1268lv) Units=km Length=0.0183937 bus1=rdt1268lv.1.2 bus2=rdm2117.1.2 switch=n enabled=y phases=2 Linecode=1P_OH_AL_2/0_Rucina_2

New Line.l(r:p1rlv2115-rdm2119) Units=km Length=0.0755187 bus1=rdm2119.1.2 bus2=p1rlv2115.1.2 switch=n enabled=y phases=2 Linecode=1P_OH_AL_4/0_Zuzara_2

New Line.l(r:p1rlv2116-rdm2119) Units=km Length=0.16124 bus1=rdm2119.1.2 bus2=p1rlv2116.1.2 switch=n enabled=y phases=2 Linecode=1P_OH_AL_4/0_Zuzara_2

New Line.l(r:rdm2119-rdt1269lv) Units=km Length=0.0183937 bus1=rdt1269lv.1.2 bus2=rdm2119.1.2 switch=n enabled=y phases=2 Linecode=1P_OH_AL_2/0_Rucina_2

New Line.l(r:p1rlv2118-rdm2121) Units=km Length=0.0483695 bus1=rdm2121.1.2 bus2=p1rlv2118.1.2 switch=n enabled=y phases=2 Linecode=1P_OH_AL_4/0_Zuzara_2

New Line.l(r:rdm2121-rdt1269lv) Units=km Length=0.018384 bus1=rdt1269lv.1.2 bus2=rdm2121.1.2 switch=n enabled=y phases=2 Linecode=1P_OH_AL_2/0_Rucina_2

New Line.l(r:p1rlv2117-rdt1270lv) Units=km Length=0.001 bus1=rdt1270lv.1.2 bus2=p1rlv2117.1.2 switch=n enabled=y phases=2 Linecode=1P_OH_AL_4_Periwinkle_2

New Line.l(r:p1rlv2119-rdt1271lv) Units=km Length=0.0525335 bus1=rdt1271lv.1.2 bus2=p1rlv2119.1.2 switch=n enabled=y phases=2 Linecode=1P_OH_AL_4/0_Zuzara_2

New Line.l(r:p1rlv2120-rdt1272lv) Units=km Length=0.0310452 bus1=rdt1272lv.1.2 bus2=p1rlv2120.1.2 switch=n enabled=y phases=2 Linecode=1P_OH_AL_4/0_Zuzara_2

New Line.l(r:p1rlv2121-rdt1273lv) Units=km Length=0.0707784 bus1=rdt1273lv.1.2 bus2=p1rlv2121.1.2 switch=n enabled=y phases=2 Linecode=1P_OH_AL_4/0_Zuzara_2

New Line.l(r:p1rlv2122-rdt1274lv) Units=km Length=0.039015 bus1=rdt1274lv.1.2 bus2=p1rlv2122.1.2 switch=n enabled=y phases=2 Linecode=1P_OH_AL_4/0_Zuzara_2

New Line.l(r:p1rlv2123-rdt1275lv) Units=km Length=0.0382384 bus1=rdt1275lv.1.2 bus2=p1rlv2123.1.2 switch=n enabled=y phases=2 Linecode=1P_OH_AL_4/0_Zuzara_2

New Line.l(r:p1rlv2124-rdt1276lv) Units=km Length=0.001 bus1=rdt1276lv.1.2 bus2=p1rlv2124.1.2 switch=n enabled=y phases=2 Linecode=1P_OH_AL_4_Periwinkle_2

New Line.l(r:p1rlv2125-rdt1277lv) Units=km Length=0.001 bus1=rdt1277lv.1.2 bus2=p1rlv2125.1.2 switch=n enabled=y phases=2 Linecode=1P_OH_AL_4_Periwinkle_2

New Line.l(r:p1rlv2126-rdt1278lv) Units=km Length=0.07446690000000002 bus1=rdt1278lv.1.2 bus2=p1rlv2126.1.2 switch=n enabled=y phases=2 Linecode=1P_UG_AL_1/0_Brenau_2

New Line.l(r:p1rlv2127-rdt1278lv) Units=km Length=0.04286920000000001 bus1=rdt1278lv.1.2 bus2=p1rlv2127.1.2 switch=n enabled=y phases=2 Linecode=1P_UG_AL_1/0_Brenau_2

New Line.l(r:p1rlv2128-rdt1279lv) Units=km Length=0.0438774 bus1=rdt1279lv.1.2 bus2=p1rlv2128.1.2 switch=n enabled=y phases=2 Linecode=1P_UG_AL_1/0_Brenau_2

New Line.l(r:p1rlv2129-rdt1280lv) Units=km Length=0.0669445 bus1=rdt1280lv.1.2 bus2=p1rlv2129.1.2 switch=n enabled=y phases=2 Linecode=1P_OH_AL_4/0_Zuzara_2

New Line.l(r:p1rlv2130-rdt1281lv) Units=km Length=0.0406387 bus1=rdt1281lv.1.2 bus2=p1rlv2130.1.2 switch=n enabled=y phases=2 Linecode=1P_OH_AL_4/0_Zuzara_2

New Line.l(r:p1rlv2131-rdt1282lv) Units=km Length=0.0496467 bus1=rdt1282lv.1.2 bus2=p1rlv2131.1.2 switch=n enabled=y phases=2 Linecode=1P_OH_AL_4/0_Zuzara_2

New Line.l(r:p1rlv2132-rdt1283lv) Units=km Length=0.0727102 bus1=rdt1283lv.1.2 bus2=p1rlv2132.1.2 switch=n enabled=y phases=2 Linecode=1P_OH_AL_4/0_Zuzara_2

New Line.l(r:p1rlv2133-rdt1284lv) Units=km Length=0.0642866 bus1=rdt1284lv.1.2 bus2=p1rlv2133.1.2 switch=n enabled=y phases=2 Linecode=1P_UG_AL_1/0_Brenau_2

New Line.l(r:p1rlv2134-rdt1285lv) Units=km Length=0.0499511 bus1=rdt1285lv.1.2 bus2=p1rlv2134.1.2 switch=n enabled=y phases=2 Linecode=1P_OH_AL_4/0_Zuzara_2

New Line.l(r:p1rlv2135-rdt1286lv) Units=km Length=0.0596104 bus1=rdt1286lv.1.2 bus2=p1rlv2135.1.2 switch=n enabled=y phases=2 Linecode=1P_OH_AL_4/0_Zuzara_2

New Line.l(r:p1rlv2136-rdt1287lv) Units=km Length=0.0302187 bus1=rdt1287lv.1.2 bus2=p1rlv2136.1.2 switch=n enabled=y phases=2 Linecode=1P_UG_AL_1/0_Brenau_2

New Line.l(r:p1rlv2137-rdm2141) Units=km Length=0.0342215 bus1=rdm2141.1.2 bus2=p1rlv2137.1.2 switch=n enabled=y phases=2 Linecode=1P_UG_AL_2/0_Converse_2

New Line.l(r:rdm2141-rdt1288lv) Units=km Length=0.0347685 bus1=rdt1288lv.1.2 bus2=rdm2141.1.2 switch=n enabled=y phases=2 Linecode=1P_UG_AL_2/0_Converse_2

New Line.l(r:p1rlv2138-rdm2142) Units=km Length=0.0382562 bus1=rdm2142.1.2 bus2=p1rlv2138.1.2 switch=n enabled=y phases=2 Linecode=1P_UG_AL_1/0_Brenau_2

New Line.l(r:rdm2142-rdt1288lv) Units=km Length=0.0293781 bus1=rdt1288lv.1.2 bus2=rdm2142.1.2 switch=n enabled=y phases=2 Linecode=1P_UG_AL_1/0_Brenau_2

New Line.l(r:p1rlv2139-rdt1289lv) Units=km Length=0.0432151 bus1=rdt1289lv.1.2 bus2=p1rlv2139.1.2 switch=n enabled=y phases=2 Linecode=1P_UG_AL_1/0_Brenau_2

New Line.l(r:p1rlv2140-rdm2144) Units=km Length=0.021570100000000002 bus1=rdm2144.1.2 bus2=p1rlv2140.1.2 switch=n enabled=y phases=2 Linecode=1P_UG_AL_1/0_Brenau_2

New Line.l(r:rdm2144-rdt1289lv) Units=km Length=0.0441469 bus1=rdt1289lv.1.2 bus2=rdm2144.1.2 switch=n enabled=y phases=2 Linecode=1P_UG_AL_1/0_Brenau_2

New Line.l(r:p1rlv2181-rdm2145) Units=km Length=0.029027300000000002 bus1=rdm2145.1.2 bus2=p1rlv2181.1.2 switch=n enabled=y phases=2 Linecode=1P_UG_AL_1/0_Brenau_2

New Line.l(r:rdm2145-rdt1289lv) Units=km Length=0.041414 bus1=rdt1289lv.1.2 bus2=rdm2145.1.2 switch=n enabled=y phases=2 Linecode=1P_UG_AL_1/0_Brenau_2

New Line.l(r:p1rlv2142-rdm2147) Units=km Length=0.0365904 bus1=rdm2147.1.2 bus2=p1rlv2142.1.2 switch=n enabled=y phases=2 Linecode=1P_UG_AL_1/0_Brenau_2

New Line.l(r:p1rlv2141-rdm2146) Units=km Length=0.0373809 bus1=rdm2146.1.2 bus2=p1rlv2141.1.2 switch=n enabled=y phases=2 Linecode=1P_UG_AL_1/0_Brenau_2

New Line.l(r:rdm2146-rdm2147) Units=km Length=0.00889306 bus1=rdm2147.1.2 bus2=rdm2146.1.2 switch=n enabled=y phases=2 Linecode=1P_UG_AL_1/0_Brenau_2

New Line.l(r:rdm2147-rdt1290lv) Units=km Length=0.00889007 bus1=rdt1290lv.1.2 bus2=rdm2147.1.2 switch=n enabled=y phases=2 Linecode=1P_UG_AL_2/0_Converse_2

New Line.l(r:p1rlv2143-rdm2148) Units=km Length=0.0324602 bus1=rdm2148.1.2 bus2=p1rlv2143.1.2 switch=n enabled=y phases=2 Linecode=1P_UG_AL_1/0_Brenau_2

New Line.l(r:rdm2148-rdt1290lv) Units=km Length=0.0266648 bus1=rdt1290lv.1.2 bus2=rdm2148.1.2 switch=n enabled=y phases=2 Linecode=1P_UG_AL_1/0_Brenau_2

New Line.l(r:p1rlv2146-rdt1291lv) Units=km Length=0.0323736 bus1=rdt1291lv.1.2 bus2=p1rlv2146.1.2 switch=n enabled=y phases=2 Linecode=1P_UG_AL_1/0_Brenau_2

New Line.l(r:p1rlv2144-rdm2149) Units=km Length=0.03279 bus1=rdm2149.1.2 bus2=p1rlv2144.1.2 switch=n enabled=y phases=2 Linecode=1P_UG_AL_4/0_Sweetbriar_2

New Line.l(r:rdm2149-rdt1291lv) Units=km Length=0.00889007 bus1=rdt1291lv.1.2 bus2=rdm2149.1.2 switch=n enabled=y phases=2 Linecode=1P_UG_AL_4/0_Sweetbriar_2

New Line.l(r:p1rlv2147-rdm2151) Units=km Length=0.0318322 bus1=rdm2151.1.2 bus2=p1rlv2147.1.2 switch=n enabled=y phases=2 Linecode=1P_UG_AL_1/0_Brenau_2

New Line.l(r:rdm2151-rdt1291lv) Units=km Length=0.00889847 bus1=rdt1291lv.1.2 bus2=rdm2151.1.2 switch=n enabled=y phases=2 Linecode=1P_UG_AL_1/0_Brenau_2

New Line.l(r:p1rlv2149-rdm2153) Units=km Length=0.0314408 bus1=rdm2153.1.2 bus2=p1rlv2149.1.2 switch=n enabled=y phases=2 Linecode=1P_UG_AL_1/0_Brenau_2

New Line.l(r:p1rlv2151-rdm2153) Units=km Length=0.030782 bus1=rdm2153.1.2 bus2=p1rlv2151.1.2 switch=n enabled=y phases=2 Linecode=1P_UG_AL_1/0_Brenau_2

New Line.l(r:p1rlv2148-rdm2152) Units=km Length=0.03377030000000001 bus1=rdm2152.1.2 bus2=p1rlv2148.1.2 switch=n enabled=y phases=2 Linecode=1P_UG_AL_1/0_Brenau_2

New Line.l(r:rdm2152-rdm2153) Units=km Length=0.0244444 bus1=rdm2153.1.2 bus2=rdm2152.1.2 switch=n enabled=y phases=2 Linecode=1P_UG_AL_1/0_Brenau_2

New Line.l(r:rdm2153-rdt1292lv) Units=km Length=0.00846399 bus1=rdt1292lv.1.2 bus2=rdm2153.1.2 switch=n enabled=y phases=2 Linecode=1P_UG_AL_4/0_Sweetbriar_2

New Line.l(r:p1rlv2152-rdm2155) Units=km Length=0.0293985 bus1=rdm2155.1.2 bus2=p1rlv2152.1.2 switch=n enabled=y phases=2 Linecode=1P_UG_AL_4/0_Sweetbriar_2

New Line.l(r:rdm2155-rdt1292lv) Units=km Length=0.0453269 bus1=rdt1292lv.1.2 bus2=rdm2155.1.2 switch=n enabled=y phases=2 Linecode=1P_UG_AL_4/0_Sweetbriar_2

New Line.l(r:p1rlv2155-rdm2157) Units=km Length=0.0323898 bus1=rdm2157.1.2 bus2=p1rlv2155.1.2 switch=n enabled=y phases=2 Linecode=1P_UG_AL_4/0_Sweetbriar_2

New Line.l(r:rdm2157-rdt1294lv) Units=km Length=0.016301 bus1=rdt1294lv.1.2 bus2=rdm2157.1.2 switch=n enabled=y phases=2 Linecode=1P_UG_AL_4/0_Sweetbriar_2

New Line.l(r:p1rlv2162-rdm2158) Units=km Length=0.0217705 bus1=rdm2158.1.2 bus2=p1rlv2162.1.2 switch=n enabled=y phases=2 Linecode=1P_UG_AL_4/0_Sweetbriar_2

New Line.l(r:rdm2158-rdt1294lv) Units=km Length=0.0216425 bus1=rdt1294lv.1.2 bus2=rdm2158.1.2 switch=n enabled=y phases=2 Linecode=1P_UG_AL_4/0_Sweetbriar_2

New Line.l(r:p1rlv2157-rdm2160) Units=km Length=0.0422415 bus1=rdm2160.1.2 bus2=p1rlv2157.1.2 switch=n enabled=y phases=2 Linecode=1P_UG_AL_1/0_Brenau_2

New Line.l(r:rdm2160-rdt1296lv) Units=km Length=0.015282800000000001 bus1=rdt1296lv.1.2 bus2=rdm2160.1.2 switch=n enabled=y phases=2 Linecode=1P_UG_AL_1/0_Brenau_2

New Line.l(r:p1rlv2159-rdm2161) Units=km Length=0.0390225 bus1=rdm2161.1.2 bus2=p1rlv2159.1.2 switch=n enabled=y phases=2 Linecode=1P_UG_AL_1/0_Brenau_2

New Line.l(r:rdm2161-rdt1296lv) Units=km Length=0.021349300000000005 bus1=rdt1296lv.1.2 bus2=rdm2161.1.2 switch=n enabled=y phases=2 Linecode=1P_UG_AL_1/0_Brenau_2

New Line.l(r:p1rlv2165-rdm2167) Units=km Length=0.0708498 bus1=rdm2167.1.2 bus2=p1rlv2165.1.2 switch=n enabled=y phases=2 Linecode=1P_UG_AL_1/0_Brenau_2

New Line.l(r:p1rlv2164-rdm2166) Units=km Length=0.0645604 bus1=rdm2166.1.2 bus2=p1rlv2164.1.2 switch=n enabled=y phases=2 Linecode=1P_UG_AL_1/0_Brenau_2

New Line.l(r:rdm2166-rdm2167) Units=km Length=0.00846399 bus1=rdm2167.1.2 bus2=rdm2166.1.2 switch=n enabled=y phases=2 Linecode=1P_UG_AL_1/0_Brenau_2

New Line.l(r:rdm2167-rdt1301lv) Units=km Length=0.00814371 bus1=rdt1301lv.1.2 bus2=rdm2167.1.2 switch=n enabled=y phases=2 Linecode=1P_UG_AL_1/0_Brenau_2

New Line.l(r:p1rlv2166-rdm2168) Units=km Length=0.0525353 bus1=rdm2168.1.2 bus2=p1rlv2166.1.2 switch=n enabled=y phases=2 Linecode=1P_UG_AL_4/0_Sweetbriar_2

New Line.l(r:rdm2168-rdt1301lv) Units=km Length=0.00815697 bus1=rdt1301lv.1.2 bus2=rdm2168.1.2 switch=n enabled=y phases=2 Linecode=1P_UG_AL_4/0_Sweetbriar_2

New Line.l(r:p1rlv2168-rdt1302lv) Units=km Length=0.05111 bus1=rdt1302lv.1.2 bus2=p1rlv2168.1.2 switch=n enabled=y phases=2 Linecode=1P_OH_AL_4/0_Zuzara_2

New Line.l(r:p1rlv2167-rdm2169) Units=km Length=0.0313601 bus1=rdm2169.1.2 bus2=p1rlv2167.1.2 switch=n enabled=y phases=2 Linecode=1P_OH_AL_4/0_Zuzara_2

New Line.l(r:rdm2169-rdt1302lv) Units=km Length=0.0171058 bus1=rdt1302lv.1.2 bus2=rdm2169.1.2 switch=n enabled=y phases=2 Linecode=1P_OH_AL_2/0_Rucina_2

New Line.l(r:p1rlv2169-rdm2171) Units=km Length=0.0408041 bus1=rdm2171.1.2 bus2=p1rlv2169.1.2 switch=n enabled=y phases=2 Linecode=1P_OH_AL_4/0_Zuzara_2

New Line.l(r:p1rlv2171-rdm2171) Units=km Length=0.0295883 bus1=rdm2171.1.2 bus2=p1rlv2171.1.2 switch=n enabled=y phases=2 Linecode=1P_OH_AL_4/0_Zuzara_2

New Line.l(r:rdm2171-rdt1302lv) Units=km Length=0.0170972 bus1=rdt1302lv.1.2 bus2=rdm2171.1.2 switch=n enabled=y phases=2 Linecode=1P_OH_AL_2/0_Rucina_2

New Line.l(r:p1rlv2170-rdt1303lv) Units=km Length=0.0411246 bus1=rdt1303lv.1.2 bus2=p1rlv2170.1.2 switch=n enabled=y phases=2 Linecode=1P_UG_AL_4/0_Sweetbriar_2

New Line.l(r:p1rlv2186-rdt1304lv) Units=km Length=0.0285709 bus1=rdt1304lv.1.2 bus2=p1rlv2186.1.2 switch=n enabled=y phases=2 Linecode=1P_UG_AL_1/0_Brenau_2

New Line.l(r:p1rlv2172-rdm2174) Units=km Length=0.0265217 bus1=rdm2174.1.2 bus2=p1rlv2172.1.2 switch=n enabled=y phases=2 Linecode=1P_OH_AL_2/0_Rucina_2

New Line.l(r:rdm2174-rdt1304lv) Units=km Length=0.0513089 bus1=rdt1304lv.1.2 bus2=rdm2174.1.2 switch=n enabled=y phases=2 Linecode=1P_OH_AL_4/0_Zuzara_2

New Line.l(r:p1rlv2185-rdm2175) Units=km Length=0.030941600000000003 bus1=rdm2175.1.2 bus2=p1rlv2185.1.2 switch=n enabled=y phases=2 Linecode=1P_UG_AL_1/0_Brenau_2

New Line.l(r:rdm2175-rdt1304lv) Units=km Length=0.0263934 bus1=rdt1304lv.1.2 bus2=rdm2175.1.2 switch=n enabled=y phases=2 Linecode=1P_UG_AL_1/0_Brenau_2

New Line.l(r:p1rlv2174-rdm2177) Units=km Length=0.0210751 bus1=rdm2177.1.2 bus2=p1rlv2174.1.2 switch=n enabled=y phases=2 Linecode=1P_UG_AL_1/0_Brenau_2

New Line.l(r:rdm2177-rdt1305lv) Units=km Length=0.0272302 bus1=rdt1305lv.1.2 bus2=rdm2177.1.2 switch=n enabled=y phases=2 Linecode=1P_UG_AL_1/0_Brenau_2

New Line.l(r:p1rlv2175-rdm2178) Units=km Length=0.0347922 bus1=rdm2178.1.2 bus2=p1rlv2175.1.2 switch=n enabled=y phases=2 Linecode=1P_UG_AL_1/0_Brenau_2

New Line.l(r:rdm2178-rdt1305lv) Units=km Length=0.0188395 bus1=rdt1305lv.1.2 bus2=rdm2178.1.2 switch=n enabled=y phases=2 Linecode=1P_UG_AL_1/0_Brenau_2

New Line.l(r:p1rlv2177-rdt1306lv) Units=km Length=0.0296097 bus1=rdt1306lv.1.2 bus2=p1rlv2177.1.2 switch=n enabled=y phases=2 Linecode=1P_UG_AL_1/0_Brenau_2

New Line.l(r:p1rlv2178-rdt1307lv) Units=km Length=0.0315116 bus1=rdt1307lv.1.2 bus2=p1rlv2178.1.2 switch=n enabled=y phases=2 Linecode=1P_UG_AL_1/0_Brenau_2

New Line.l(r:p1rlv2179-rdt1307lv) Units=km Length=0.0301107 bus1=rdt1307lv.1.2 bus2=p1rlv2179.1.2 switch=n enabled=y phases=2 Linecode=1P_UG_AL_1/0_Brenau_2

New Line.l(r:p1rlv2180-rdt1308lv) Units=km Length=0.0259398 bus1=rdt1308lv.1.2 bus2=p1rlv2180.1.2 switch=n enabled=y phases=2 Linecode=1P_UG_AL_1/0_Brenau_2

New Line.l(r:p1rlv2182-rdt1309lv) Units=km Length=0.0489704 bus1=rdt1309lv.1.2 bus2=p1rlv2182.1.2 switch=n enabled=y phases=2 Linecode=1P_UG_AL_1/0_Brenau_2

New Line.l(r:p1rlv2183-rdt1310lv) Units=km Length=0.0291763 bus1=rdt1310lv.1.2 bus2=p1rlv2183.1.2 switch=n enabled=y phases=2 Linecode=1P_UG_AL_2/0_Converse_2

New Line.l(r:p1rlv2187-rdt1311lv) Units=km Length=0.0381201 bus1=rdt1311lv.1.2 bus2=p1rlv2187.1.2 switch=n enabled=y phases=2 Linecode=1P_OH_AL_4/0_Zuzara_2

New Line.l(r:p1rlv2189-rdt1313lv) Units=km Length=0.001 bus1=rdt1313lv.1.2 bus2=p1rlv2189.1.2 switch=n enabled=y phases=2 Linecode=1P_OH_AL_4_Periwinkle_2

New Line.l(r:p1rlv2190-rdt1314lv) Units=km Length=0.0584028 bus1=rdt1314lv.1.2 bus2=p1rlv2190.1.2 switch=n enabled=y phases=2 Linecode=1P_OH_AL_4/0_Zuzara_2

New Line.l(r:p1rlv2191-rdt1314lv) Units=km Length=0.0615208 bus1=rdt1314lv.1.2 bus2=p1rlv2191.1.2 switch=n enabled=y phases=2 Linecode=1P_OH_AL_4/0_Zuzara_2

New Line.l(r:p1rlv2192-rdt1314lv) Units=km Length=0.07041650000000002 bus1=rdt1314lv.1.2 bus2=p1rlv2192.1.2 switch=n enabled=y phases=2 Linecode=1P_OH_AL_4/0_Zuzara_2

New Line.l(r:p1rlv2193-rdt1315lv) Units=km Length=0.0499832 bus1=rdt1315lv.1.2 bus2=p1rlv2193.1.2 switch=n enabled=y phases=2 Linecode=1P_OH_AL_4/0_Zuzara_2

New Line.l(r:p1rlv2194-rdt1315lv) Units=km Length=0.0458515 bus1=rdt1315lv.1.2 bus2=p1rlv2194.1.2 switch=n enabled=y phases=2 Linecode=1P_OH_AL_4/0_Zuzara_2

New Line.l(r:p1rlv2197-rdt1318lv) Units=km Length=0.001 bus1=rdt1318lv.1.2 bus2=p1rlv2197.1.2 switch=n enabled=y phases=2 Linecode=1P_OH_AL_4_Periwinkle_2

New Line.l(r:p1rlv2198-rdt1319lv) Units=km Length=0.0761708 bus1=rdt1319lv.1.2 bus2=p1rlv2198.1.2 switch=n enabled=y phases=2 Linecode=1P_OH_AL_4/0_Zuzara_2

New Line.l(r:p1rlv2200-rdt1321lv) Units=km Length=0.0401745 bus1=rdt1321lv.1.2 bus2=p1rlv2200.1.2 switch=n enabled=y phases=2 Linecode=1P_OH_AL_4/0_Zuzara_2

New Line.l(r:p1rlv2201-rdt1322lv) Units=km Length=0.0277265 bus1=rdt1322lv.1.2 bus2=p1rlv2201.1.2 switch=n enabled=y phases=2 Linecode=1P_UG_AL_1/0_Brenau_2

New Line.l(r:p1rlv2205-rdt1324lv) Units=km Length=0.027895 bus1=rdt1324lv.1.2 bus2=p1rlv2205.1.2 switch=n enabled=y phases=2 Linecode=1P_OH_AL_4/0_Zuzara_2

New Line.l(r:p1rlv2203-rdm2201) Units=km Length=0.0279716 bus1=rdm2201.1.2 bus2=p1rlv2203.1.2 switch=n enabled=y phases=2 Linecode=1P_OH_AL_4/0_Zuzara_2

New Line.l(r:rdm2201-rdt1324lv) Units=km Length=0.01398 bus1=rdt1324lv.1.2 bus2=rdm2201.1.2 switch=n enabled=y phases=2 Linecode=1P_OH_AL_2/0_Rucina_2

New Line.l(r:p1rlv2206-rdt1326lv) Units=km Length=0.0196049 bus1=rdt1326lv.1.2 bus2=p1rlv2206.1.2 switch=n enabled=y phases=2 Linecode=1P_OH_AL_2/0_Rucina_2

New Line.l(r:p1rlv2207-rdt1327lv) Units=km Length=0.0887659 bus1=rdt1327lv.1.2 bus2=p1rlv2207.1.2 switch=n enabled=y phases=2 Linecode=1P_OH_AL_4/0_Zuzara_2

New Line.l(r:p1rlv2208-rdt1328lv) Units=km Length=0.0246879 bus1=rdt1328lv.1.2 bus2=p1rlv2208.1.2 switch=n enabled=y phases=2 Linecode=1P_UG_AL_2/0_Converse_2

New Line.l(r:p1rlv2209-rdt1329lv) Units=km Length=0.028771500000000002 bus1=rdt1329lv.1.2 bus2=p1rlv2209.1.2 switch=n enabled=y phases=2 Linecode=1P_OH_AL_4/0_Zuzara_2

New Line.l(r:p1rlv2214-rdt1334lv) Units=km Length=0.001 bus1=rdt1334lv.1.2 bus2=p1rlv2214.1.2 switch=n enabled=y phases=2 Linecode=1P_OH_AL_4_Periwinkle_2

New Line.l(r:p1rlv2217-rdt1337lv) Units=km Length=0.0721583 bus1=rdt1337lv.1.2 bus2=p1rlv2217.1.2 switch=n enabled=y phases=2 Linecode=1P_OH_AL_4/0_Zuzara_2

New Line.l(r:p1rlv2218-rdt1338lv) Units=km Length=0.0820813 bus1=rdt1338lv.1.2 bus2=p1rlv2218.1.2 switch=n enabled=y phases=2 Linecode=1P_OH_AL_4/0_Zuzara_2

New Line.l(r:p1rlv2219-rdt1339lv) Units=km Length=0.001 bus1=rdt1339lv.1.2 bus2=p1rlv2219.1.2 switch=n enabled=y phases=2 Linecode=1P_OH_AL_4_Periwinkle_2

New Line.l(r:p1rlv2221-rdt1341lv) Units=km Length=0.05039180000000001 bus1=rdt1341lv.1.2 bus2=p1rlv2221.1.2 switch=n enabled=y phases=2 Linecode=1P_OH_AL_4/0_Zuzara_2

New Line.l(r:p1rlv2222-rdt1341lv) Units=km Length=0.0120122 bus1=rdt1341lv.1.2 bus2=p1rlv2222.1.2 switch=n enabled=y phases=2 Linecode=1P_OH_AL_2/0_Rucina_2

New Line.l(r:p1rlv2223-rdt1341lv) Units=km Length=0.0383806 bus1=rdt1341lv.1.2 bus2=p1rlv2223.1.2 switch=n enabled=y phases=2 Linecode=1P_OH_AL_4/0_Zuzara_2

New Line.l(r:p1rlv2226-rdt1343lv) Units=km Length=0.0726076 bus1=rdt1343lv.1.2 bus2=p1rlv2226.1.2 switch=n enabled=y phases=2 Linecode=1P_OH_AL_4/0_Zuzara_2

New Line.l(r:p1rlv2227-rdt1344lv) Units=km Length=0.0165421 bus1=rdt1344lv.1.2 bus2=p1rlv2227.1.2 switch=n enabled=y phases=2 Linecode=1P_OH_AL_2/0_Rucina_2

New Line.l(r:p1rlv2228-rdt1344lv) Units=km Length=0.0165421 bus1=rdt1344lv.1.2 bus2=p1rlv2228.1.2 switch=n enabled=y phases=2 Linecode=1P_OH_AL_2/0_Rucina_2

New Line.l(r:p1rlv2229-rdt1345lv) Units=km Length=0.0298907 bus1=rdt1345lv.1.2 bus2=p1rlv2229.1.2 switch=n enabled=y phases=2 Linecode=1P_OH_AL_4/0_Zuzara_2

New Line.l(r:p1rlv2230-rdt1346lv) Units=km Length=0.001 bus1=rdt1346lv.1.2 bus2=p1rlv2230.1.2 switch=n enabled=y phases=2 Linecode=1P_OH_AL_4_Periwinkle_2

New Line.l(r:p1rlv2231-rdt1347lv) Units=km Length=0.0340914 bus1=rdt1347lv.1.2 bus2=p1rlv2231.1.2 switch=n enabled=y phases=2 Linecode=1P_OH_AL_4/0_Zuzara_2

New Line.l(r:p1rlv2232-rdt1348lv) Units=km Length=0.0387809 bus1=rdt1348lv.1.2 bus2=p1rlv2232.1.2 switch=n enabled=y phases=2 Linecode=1P_OH_AL_4/0_Zuzara_2

New Line.l(r:p1rlv2234-rdt1348lv) Units=km Length=0.0717398 bus1=rdt1348lv.1.2 bus2=p1rlv2234.1.2 switch=n enabled=y phases=2 Linecode=1P_OH_AL_4/0_Zuzara_2

New Line.l(r:p1rlv2235-rdt1348lv) Units=km Length=0.070984 bus1=rdt1348lv.1.2 bus2=p1rlv2235.1.2 switch=n enabled=y phases=2 Linecode=1P_OH_AL_4/0_Zuzara_2

New Line.l(r:p1rlv2236-rdm2232) Units=km Length=0.0687479 bus1=rdm2232.1.2 bus2=p1rlv2236.1.2 switch=n enabled=y phases=2 Linecode=1P_OH_AL_4/0_Zuzara_2

New Line.l(r:rdm2232-rdt1348lv) Units=km Length=0.0156909 bus1=rdt1348lv.1.2 bus2=rdm2232.1.2 switch=n enabled=y phases=2 Linecode=1P_OH_AL_2/0_Rucina_2

New Line.l(r:p1rlv2237-rdm2233) Units=km Length=0.0464543 bus1=rdm2233.1.2 bus2=p1rlv2237.1.2 switch=n enabled=y phases=2 Linecode=1P_OH_AL_4/0_Zuzara_2

New Line.l(r:rdm2233-rdt1349lv) Units=km Length=0.0353421 bus1=rdt1349lv.1.2 bus2=rdm2233.1.2 switch=n enabled=y phases=2 Linecode=1P_OH_AL_4/0_Zuzara_2

New Line.l(r:p1rlv2238-rdm2234) Units=km Length=0.1386 bus1=rdm2234.1.2 bus2=p1rlv2238.1.2 switch=n enabled=y phases=2 Linecode=1P_OH_AL_4/0_Zuzara_2

New Line.l(r:rdm2234-rdt1349lv) Units=km Length=0.0176705 bus1=rdt1349lv.1.2 bus2=rdm2234.1.2 switch=n enabled=y phases=2 Linecode=1P_OH_AL_2/0_Rucina_2

New Line.l(r:p1rlv2239-rdt1350lv) Units=km Length=0.001 bus1=rdt1350lv.1.2 bus2=p1rlv2239.1.2 switch=n enabled=y phases=2 Linecode=1P_OH_AL_4_Periwinkle_2

New Line.l(r:p1rlv2241-rdt1352lv) Units=km Length=0.0500573 bus1=rdt1352lv.1.2 bus2=p1rlv2241.1.2 switch=n enabled=y phases=2 Linecode=1P_OH_AL_4/0_Zuzara_2

New Line.l(r:p1rlv2242-rdt1352lv) Units=km Length=0.0500573 bus1=rdt1352lv.1.2 bus2=p1rlv2242.1.2 switch=n enabled=y phases=2 Linecode=1P_OH_AL_4/0_Zuzara_2

New Line.l(r:p1rlv2243-rdt1353lv) Units=km Length=0.0225815 bus1=rdt1353lv.1.2 bus2=p1rlv2243.1.2 switch=n enabled=y phases=2 Linecode=1P_OH_AL_2/0_Rucina_2

New Line.l(r:p1rlv2244-rdt1353lv) Units=km Length=0.019381 bus1=rdt1353lv.1.2 bus2=p1rlv2244.1.2 switch=n enabled=y phases=2 Linecode=1P_OH_AL_2/0_Rucina_2

New Line.l(r:p1rlv2245-rdt1353lv) Units=km Length=0.0107594 bus1=rdt1353lv.1.2 bus2=p1rlv2245.1.2 switch=n enabled=y phases=2 Linecode=1P_OH_AL_2/0_Rucina_2

New Line.l(r:p1rlv2246-rdt1353lv) Units=km Length=0.0167587 bus1=rdt1353lv.1.2 bus2=p1rlv2246.1.2 switch=n enabled=y phases=2 Linecode=1P_OH_AL_2/0_Rucina_2

New Line.l(r:p1rlv2247-rdt1353lv) Units=km Length=0.0215983 bus1=rdt1353lv.1.2 bus2=p1rlv2247.1.2 switch=n enabled=y phases=2 Linecode=1P_OH_AL_2/0_Rucina_2

New Line.l(r:p1rlv2248-rdt1354lv) Units=km Length=0.121908 bus1=rdt1354lv.1.2 bus2=p1rlv2248.1.2 switch=n enabled=y phases=2 Linecode=1P_OH_AL_4/0_Zuzara_2

New Line.l(r:p1rlv2249-rdt1354lv) Units=km Length=0.0762011 bus1=rdt1354lv.1.2 bus2=p1rlv2249.1.2 switch=n enabled=y phases=2 Linecode=1P_OH_AL_4/0_Zuzara_2

New Line.l(r:p1rlv2250-rdm2246) Units=km Length=0.0563014 bus1=rdm2246.1.2 bus2=p1rlv2250.1.2 switch=n enabled=y phases=2 Linecode=1P_OH_AL_4/0_Zuzara_2

New Line.l(r:rdm2246-rdt1354lv) Units=km Length=0.0200044 bus1=rdt1354lv.1.2 bus2=rdm2246.1.2 switch=n enabled=y phases=2 Linecode=1P_OH_AL_2/0_Rucina_2

New Line.l(r:p1rlv2251-rdt1355lv) Units=km Length=0.00762685 bus1=rdt1355lv.1.2 bus2=p1rlv2251.1.2 switch=n enabled=y phases=2 Linecode=1P_OH_AL_2/0_Rucina_2

New Line.l(r:p1rlv2252-rdt1355lv) Units=km Length=0.00361893 bus1=rdt1355lv.1.2 bus2=p1rlv2252.1.2 switch=n enabled=y phases=2 Linecode=1P_OH_AL_4_Periwinkle_2

New Line.l(r:p1rlv2253-rdt1355lv) Units=km Length=0.0112414 bus1=rdt1355lv.1.2 bus2=p1rlv2253.1.2 switch=n enabled=y phases=2 Linecode=1P_OH_AL_2/0_Rucina_2

New Line.l(r:p1rlv2254-rdt1356lv) Units=km Length=0.0622193 bus1=rdt1356lv.1.2 bus2=p1rlv2254.1.2 switch=n enabled=y phases=2 Linecode=1P_OH_AL_4/0_Zuzara_2

New Line.l(r:p1rlv2255-rdt1356lv) Units=km Length=0.0622193 bus1=rdt1356lv.1.2 bus2=p1rlv2255.1.2 switch=n enabled=y phases=2 Linecode=1P_OH_AL_4/0_Zuzara_2

New Line.l(r:p1rlv2256-rdt1357lv) Units=km Length=0.142355 bus1=rdt1357lv.1.2 bus2=p1rlv2256.1.2 switch=n enabled=y phases=2 Linecode=1P_OH_AL_4/0_Zuzara_2

New Line.l(r:p1rlv2258-rdt1357lv) Units=km Length=0.0362258 bus1=rdt1357lv.1.2 bus2=p1rlv2258.1.2 switch=n enabled=y phases=2 Linecode=1P_OH_AL_4/0_Zuzara_2

New Line.l(r:p1rlv2257-rdt1358lv) Units=km Length=0.0350297 bus1=rdt1358lv.1.2 bus2=p1rlv2257.1.2 switch=n enabled=y phases=2 Linecode=1P_OH_AL_4/0_Zuzara_2

New Line.l(r:p1rlv2259-rdt1359lv) Units=km Length=0.0365675 bus1=rdt1359lv.1.2 bus2=p1rlv2259.1.2 switch=n enabled=y phases=2 Linecode=1P_OH_AL_4/0_Zuzara_2

New Line.l(r:p1rlv2260-rdm2256) Units=km Length=0.0342413 bus1=rdm2256.1.2 bus2=p1rlv2260.1.2 switch=n enabled=y phases=2 Linecode=1P_OH_AL_4/0_Zuzara_2

New Line.l(r:rdm2256-rdt1359lv) Units=km Length=0.01911 bus1=rdt1359lv.1.2 bus2=rdm2256.1.2 switch=n enabled=y phases=2 Linecode=1P_OH_AL_2/0_Rucina_2

New Line.l(r:p1rlv2261-rdt1360lv) Units=km Length=0.001 bus1=rdt1360lv.1.2 bus2=p1rlv2261.1.2 switch=n enabled=y phases=2 Linecode=1P_OH_AL_4_Periwinkle_2

New Line.l(r:p1rlv2262-rdt1361lv) Units=km Length=0.029893000000000003 bus1=rdt1361lv.1.2 bus2=p1rlv2262.1.2 switch=n enabled=y phases=2 Linecode=1P_OH_AL_4/0_Zuzara_2

New Line.l(r:p1rlv2263-rdt1361lv) Units=km Length=0.00543055 bus1=rdt1361lv.1.2 bus2=p1rlv2263.1.2 switch=n enabled=y phases=2 Linecode=1P_OH_AL_2/0_Rucina_2

New Line.l(r:p1rlv2264-rdt1361lv) Units=km Length=0.034247700000000006 bus1=rdt1361lv.1.2 bus2=p1rlv2264.1.2 switch=n enabled=y phases=2 Linecode=1P_OH_AL_4/0_Zuzara_2

New Line.l(r:p1rlv2265-rdt1362lv) Units=km Length=0.010033 bus1=rdt1362lv.1.2 bus2=p1rlv2265.1.2 switch=n enabled=y phases=2 Linecode=1P_OH_AL_2/0_Rucina_2

New Line.l(r:p1rlv2266-rdt1362lv) Units=km Length=0.010033 bus1=rdt1362lv.1.2 bus2=p1rlv2266.1.2 switch=n enabled=y phases=2 Linecode=1P_OH_AL_2/0_Rucina_2

New Line.l(r:p1rlv2269-rdt1364lv) Units=km Length=0.001 bus1=rdt1364lv.1.2 bus2=p1rlv2269.1.2 switch=n enabled=y phases=2 Linecode=1P_OH_AL_4_Periwinkle_2

New Line.l(r:p1rlv2270-rdt1365lv) Units=km Length=0.04648750000000001 bus1=rdt1365lv.1.2 bus2=p1rlv2270.1.2 switch=n enabled=y phases=2 Linecode=1P_OH_AL_4/0_Zuzara_2

New Line.l(r:p1rlv2271-rdt1365lv) Units=km Length=0.04648750000000001 bus1=rdt1365lv.1.2 bus2=p1rlv2271.1.2 switch=n enabled=y phases=2 Linecode=1P_OH_AL_4/0_Zuzara_2

New Line.l(r:p1rlv2272-rdt1366lv) Units=km Length=0.001 bus1=rdt1366lv.1.2 bus2=p1rlv2272.1.2 switch=n enabled=y phases=2 Linecode=1P_OH_AL_4_Periwinkle_2

New Line.l(r:p1rlv2273-rdt1367lv) Units=km Length=0.0293065 bus1=rdt1367lv.1.2 bus2=p1rlv2273.1.2 switch=n enabled=y phases=2 Linecode=1P_OH_AL_4/0_Zuzara_2

New Line.l(r:p1rlv2274-rdt1367lv) Units=km Length=0.00561523 bus1=rdt1367lv.1.2 bus2=p1rlv2274.1.2 switch=n enabled=y phases=2 Linecode=1P_OH_AL_2/0_Rucina_2

New Line.l(r:p1rlv2275-rdt1367lv) Units=km Length=0.0308093 bus1=rdt1367lv.1.2 bus2=p1rlv2275.1.2 switch=n enabled=y phases=2 Linecode=1P_OH_AL_4/0_Zuzara_2

New Line.l(r:p1rlv2277-rdt1369lv) Units=km Length=0.001 bus1=rdt1369lv.1.2 bus2=p1rlv2277.1.2 switch=n enabled=y phases=2 Linecode=1P_OH_AL_4_Periwinkle_2

New Line.l(r:p1rlv2278-rdt1370lv) Units=km Length=0.0477317 bus1=rdt1370lv.1.2 bus2=p1rlv2278.1.2 switch=n enabled=y phases=2 Linecode=1P_OH_AL_4/0_Zuzara_2

New Line.l(r:p1rlv2279-rdt1370lv) Units=km Length=0.0364636 bus1=rdt1370lv.1.2 bus2=p1rlv2279.1.2 switch=n enabled=y phases=2 Linecode=1P_OH_AL_4/0_Zuzara_2

New Line.l(r:p1rlv2280-rdt1370lv) Units=km Length=0.0305292 bus1=rdt1370lv.1.2 bus2=p1rlv2280.1.2 switch=n enabled=y phases=2 Linecode=1P_OH_AL_4/0_Zuzara_2

New Line.l(r:p1rlv2281-rdm2277) Units=km Length=0.0207058 bus1=rdm2277.1.2 bus2=p1rlv2281.1.2 switch=n enabled=y phases=2 Linecode=1P_OH_AL_2/0_Rucina_2

New Line.l(r:rdm2277-rdt1370lv) Units=km Length=0.101215 bus1=rdt1370lv.1.2 bus2=rdm2277.1.2 switch=n enabled=y phases=2 Linecode=1P_OH_AL_4/0_Zuzara_2

New Line.l(r:p1rlv2282-rdt1371lv) Units=km Length=0.08164270000000001 bus1=rdt1371lv.1.2 bus2=p1rlv2282.1.2 switch=n enabled=y phases=2 Linecode=1P_OH_AL_4/0_Zuzara_2

New Line.l(r:p1rlv2284-rdt1371lv) Units=km Length=0.0440655 bus1=rdt1371lv.1.2 bus2=p1rlv2284.1.2 switch=n enabled=y phases=2 Linecode=1P_OH_AL_4/0_Zuzara_2

New Line.l(r:p1rlv2283-rdt1372lv) Units=km Length=0.073294 bus1=rdt1372lv.1.2 bus2=p1rlv2283.1.2 switch=n enabled=y phases=2 Linecode=1P_OH_AL_4/0_Zuzara_2

New Line.l(r:p1rlv2287-rdt1375lv) Units=km Length=0.009930260000000002 bus1=rdt1375lv.1.2 bus2=p1rlv2287.1.2 switch=n enabled=y phases=2 Linecode=1P_OH_AL_2/0_Rucina_2

New Line.l(r:p1rlv2288-rdt1376lv) Units=km Length=0.001 bus1=rdt1376lv.1.2 bus2=p1rlv2288.1.2 switch=n enabled=y phases=2 Linecode=1P_OH_AL_4_Periwinkle_2

New Line.l(r:p1rlv3478-rdt2045lv) Units=km Length=0.0198126 bus1=rdt2045lv.1.2 bus2=p1rlv3478.1.2 switch=n enabled=y phases=2 Linecode=1P_OH_AL_2/0_Rucina_2

New Line.l(r:p1rlv3479-rdt2045lv) Units=km Length=0.021689400000000005 bus1=rdt2045lv.1.2 bus2=p1rlv3479.1.2 switch=n enabled=y phases=2 Linecode=1P_OH_AL_2/0_Rucina_2

New Line.l(r:p1rlv3480-rdt2045lv) Units=km Length=0.0366815 bus1=rdt2045lv.1.2 bus2=p1rlv3480.1.2 switch=n enabled=y phases=2 Linecode=1P_OH_AL_4/0_Zuzara_2

New Line.l(r:p1rlv3481-rdt2046lv) Units=km Length=0.0954417 bus1=rdt2046lv.1.2 bus2=p1rlv3481.1.2 switch=n enabled=y phases=2 Linecode=1P_OH_AL_4/0_Zuzara_2

New Line.l(r:p1rlv3483-rdt2046lv) Units=km Length=0.0382823 bus1=rdt2046lv.1.2 bus2=p1rlv3483.1.2 switch=n enabled=y phases=2 Linecode=1P_OH_AL_4/0_Zuzara_2

New Line.l(r:p1rlv3482-rdm3470) Units=km Length=0.107245 bus1=rdm3470.1.2 bus2=p1rlv3482.1.2 switch=n enabled=y phases=2 Linecode=1P_OH_AL_4/0_Zuzara_2

New Line.l(r:rdm3470-rdt2046lv) Units=km Length=0.0199803 bus1=rdt2046lv.1.2 bus2=rdm3470.1.2 switch=n enabled=y phases=2 Linecode=1P_OH_AL_2/0_Rucina_2

New Line.l(r:p1rlv3484-rdt2047lv) Units=km Length=0.001 bus1=rdt2047lv.1.2 bus2=p1rlv3484.1.2 switch=n enabled=y phases=2 Linecode=1P_OH_AL_4_Periwinkle_2

New Line.l(r:p1rlv3485-rdt2048lv) Units=km Length=0.001 bus1=rdt2048lv.1.2 bus2=p1rlv3485.1.2 switch=n enabled=y phases=2 Linecode=1P_OH_AL_4_Periwinkle_2

New Line.l(r:p1rlv3486-rdt2049lv) Units=km Length=0.001 bus1=rdt2049lv.1.2 bus2=p1rlv3486.1.2 switch=n enabled=y phases=2 Linecode=1P_OH_AL_4_Periwinkle_2

New Line.l(r:p1rlv3487-rdt2050lv) Units=km Length=0.0257286 bus1=rdt2050lv.1.2 bus2=p1rlv3487.1.2 switch=n enabled=y phases=2 Linecode=1P_OH_AL_2/0_Rucina_2

New Line.l(r:p1rlv3490-rdt2050lv) Units=km Length=0.025555800000000004 bus1=rdt2050lv.1.2 bus2=p1rlv3490.1.2 switch=n enabled=y phases=2 Linecode=1P_OH_AL_2/0_Rucina_2

New Line.l(r:p1rlv3491-rdt2050lv) Units=km Length=0.0307092 bus1=rdt2050lv.1.2 bus2=p1rlv3491.1.2 switch=n enabled=y phases=2 Linecode=1P_OH_AL_4/0_Zuzara_2

New Line.l(r:p1rlv5101-rdt2051lv) Units=km Length=0.106174 bus1=rdt2051lv.1.2 bus2=p1rlv5101.1.2 switch=n enabled=y phases=2 Linecode=1P_OH_AL_4/0_Zuzara_2

New Line.l(r:p1rlv5102-rdt2051lv) Units=km Length=0.0868185 bus1=rdt2051lv.1.2 bus2=p1rlv5102.1.2 switch=n enabled=y phases=2 Linecode=1P_OH_AL_4/0_Zuzara_2

New Line.l(r:p1rlv3488-rdm3478) Units=km Length=0.0941929 bus1=rdm3478.1.2 bus2=p1rlv3488.1.2 switch=n enabled=y phases=2 Linecode=1P_OH_AL_4/0_Zuzara_2

New Line.l(r:rdm3478-rdt2051lv) Units=km Length=0.0364686 bus1=rdt2051lv.1.2 bus2=rdm3478.1.2 switch=n enabled=y phases=2 Linecode=1P_OH_AL_4/0_Zuzara_2

New Line.l(r:p1rlv3489-rdt2052lv) Units=km Length=0.034151 bus1=rdt2052lv.1.2 bus2=p1rlv3489.1.2 switch=n enabled=y phases=2 Linecode=1P_OH_AL_4/0_Zuzara_2

New Line.l(r:p1rlv3492-rdt2053lv) Units=km Length=0.131419 bus1=rdt2053lv.1.2 bus2=p1rlv3492.1.2 switch=n enabled=y phases=2 Linecode=1P_OH_AL_4/0_Zuzara_2

New Line.l(r:p1rlv3496-rdm3483) Units=km Length=0.04271370000000001 bus1=rdm3483.1.2 bus2=p1rlv3496.1.2 switch=n enabled=y phases=2 Linecode=1P_OH_AL_4/0_Zuzara_2

New Line.l(r:rdm3483-rdt2053lv) Units=km Length=0.0190327 bus1=rdt2053lv.1.2 bus2=rdm3483.1.2 switch=n enabled=y phases=2 Linecode=1P_OH_AL_2/0_Rucina_2

New Line.l(r:p1rlv3493-rdm3484) Units=km Length=0.115989 bus1=rdm3484.1.2 bus2=p1rlv3493.1.2 switch=n enabled=y phases=2 Linecode=1P_OH_AL_4/0_Zuzara_2

New Line.l(r:p1rlv3494-rdm3484) Units=km Length=0.10149 bus1=rdm3484.1.2 bus2=p1rlv3494.1.2 switch=n enabled=y phases=2 Linecode=1P_OH_AL_4/0_Zuzara_2

New Line.l(r:rdm3484-rdt2054lv) Units=km Length=0.019032500000000004 bus1=rdt2054lv.1.2 bus2=rdm3484.1.2 switch=n enabled=y phases=2 Linecode=1P_OH_AL_2/0_Rucina_2

New Line.l(r:p1rlv3495-rdm3486) Units=km Length=0.0785723 bus1=rdm3486.1.2 bus2=p1rlv3495.1.2 switch=n enabled=y phases=2 Linecode=1P_OH_AL_4/0_Zuzara_2

New Line.l(r:rdm3486-rdt2054lv) Units=km Length=0.0190427 bus1=rdt2054lv.1.2 bus2=rdm3486.1.2 switch=n enabled=y phases=2 Linecode=1P_OH_AL_2/0_Rucina_2

New Line.l(r:p1rlv3497-rdt2055lv) Units=km Length=0.0650183 bus1=rdt2055lv.1.2 bus2=p1rlv3497.1.2 switch=n enabled=y phases=2 Linecode=1P_OH_AL_4/0_Zuzara_2

New Line.l(r:p1rlv3498-rdm3488) Units=km Length=0.113644 bus1=rdm3488.1.2 bus2=p1rlv3498.1.2 switch=n enabled=y phases=2 Linecode=1P_OH_AL_4/0_Zuzara_2

New Line.l(r:rdm3488-rdt2055lv) Units=km Length=0.019032500000000004 bus1=rdt2055lv.1.2 bus2=rdm3488.1.2 switch=n enabled=y phases=2 Linecode=1P_OH_AL_2/0_Rucina_2

New Line.l(r:p1rlv3499-rdt2056lv) Units=km Length=0.001 bus1=rdt2056lv.1.2 bus2=p1rlv3499.1.2 switch=n enabled=y phases=2 Linecode=1P_OH_AL_4_Periwinkle_2

New Line.l(r:p1rlv3500-rdt2057lv) Units=km Length=0.001 bus1=rdt2057lv.1.2 bus2=p1rlv3500.1.2 switch=n enabled=y phases=2 Linecode=1P_OH_AL_4_Periwinkle_2

New Line.l(r:p1rlv3501-rdt2058lv) Units=km Length=0.001 bus1=rdt2058lv.1.2 bus2=p1rlv3501.1.2 switch=n enabled=y phases=2 Linecode=1P_OH_AL_4_Periwinkle_2

New Line.l(r:p1rlv3502-rdt2059lv) Units=km Length=0.117044 bus1=rdt2059lv.1.2 bus2=p1rlv3502.1.2 switch=n enabled=y phases=2 Linecode=1P_OH_AL_4/0_Zuzara_2

New Line.l(r:p1rlv3503-rdt2059lv) Units=km Length=0.0675225 bus1=rdt2059lv.1.2 bus2=p1rlv3503.1.2 switch=n enabled=y phases=2 Linecode=1P_OH_AL_4/0_Zuzara_2

New Line.l(r:p1rlv3504-rdm3494) Units=km Length=0.0254405 bus1=rdm3494.1.2 bus2=p1rlv3504.1.2 switch=n enabled=y phases=2 Linecode=1P_OH_AL_2/0_Rucina_2

New Line.l(r:rdm3494-rdt2059lv) Units=km Length=0.0177628 bus1=rdt2059lv.1.2 bus2=rdm3494.1.2 switch=n enabled=y phases=2 Linecode=1P_OH_AL_2/0_Rucina_2

New Line.l(r:p1rlv3560-rdm3495) Units=km Length=0.0658771 bus1=rdm3495.1.2 bus2=p1rlv3560.1.2 switch=n enabled=y phases=2 Linecode=1P_OH_AL_4/0_Zuzara_2

New Line.l(r:p1rlv3561-rdm3495) Units=km Length=0.105513 bus1=rdm3495.1.2 bus2=p1rlv3561.1.2 switch=n enabled=y phases=2 Linecode=1P_OH_AL_4/0_Zuzara_2

New Line.l(r:rdm3495-rdt2059lv) Units=km Length=0.0199587 bus1=rdt2059lv.1.2 bus2=rdm3495.1.2 switch=n enabled=y phases=2 Linecode=1P_OH_AL_2/0_Rucina_2

New Line.l(r:p1rlv3505-rdt2060lv) Units=km Length=0.0180558 bus1=rdt2060lv.1.2 bus2=p1rlv3505.1.2 switch=n enabled=y phases=2 Linecode=1P_OH_AL_2/0_Rucina_2

New Line.l(r:p1rlv3506-rdt2060lv) Units=km Length=0.0180558 bus1=rdt2060lv.1.2 bus2=p1rlv3506.1.2 switch=n enabled=y phases=2 Linecode=1P_OH_AL_2/0_Rucina_2

New Line.l(r:p1rlv3507-rdt2061lv) Units=km Length=0.097687 bus1=rdt2061lv.1.2 bus2=p1rlv3507.1.2 switch=n enabled=y phases=2 Linecode=1P_OH_AL_4/0_Zuzara_2

New Line.l(r:p1rlv3508-rdt2062lv) Units=km Length=0.0531275 bus1=rdt2062lv.1.2 bus2=p1rlv3508.1.2 switch=n enabled=y phases=2 Linecode=1P_UG_AL_1/0_Brenau_2

New Line.l(r:p1rlv3511-rdm3503) Units=km Length=0.0207513 bus1=rdm3503.1.2 bus2=p1rlv3511.1.2 switch=n enabled=y phases=2 Linecode=1P_UG_AL_2/0_Converse_2

New Line.l(r:p1rlv3509-rdm3501) Units=km Length=0.021768900000000004 bus1=rdm3501.1.2 bus2=p1rlv3509.1.2 switch=n enabled=y phases=2 Linecode=1P_UG_AL_1/0_Brenau_2

New Line.l(r:p1rlv3510-rdm3502) Units=km Length=0.0243002 bus1=rdm3502.1.2 bus2=p1rlv3510.1.2 switch=n enabled=y phases=2 Linecode=1P_UG_AL_1/0_Brenau_2

New Line.l(r:rdm3501-rdm3502) Units=km Length=0.016741200000000005 bus1=rdm3501.1.2 bus2=rdm3502.1.2 switch=n enabled=y phases=2 Linecode=1P_UG_AL_1/0_Brenau_2

New Line.l(r:rdm3501-rdm3503) Units=km Length=0.0165538 bus1=rdm3503.1.2 bus2=rdm3501.1.2 switch=n enabled=y phases=2 Linecode=1P_UG_AL_1/0_Brenau_2

New Line.l(r:rdm3503-rdt2063lv) Units=km Length=0.00828185 bus1=rdt2063lv.1.2 bus2=rdm3503.1.2 switch=n enabled=y phases=2 Linecode=1P_UG_AL_4/0_Sweetbriar_2

New Line.l(r:p1rlv3512-rdm3504) Units=km Length=0.0192104 bus1=rdm3504.1.2 bus2=p1rlv3512.1.2 switch=n enabled=y phases=2 Linecode=1P_UG_AL_1/0_Brenau_2

New Line.l(r:p1rlv3513-rdm3505) Units=km Length=0.0251759 bus1=rdm3505.1.2 bus2=p1rlv3513.1.2 switch=n enabled=y phases=2 Linecode=1P_UG_AL_1/0_Brenau_2

New Line.l(r:rdm3504-rdm3505) Units=km Length=0.0311504 bus1=rdm3504.1.2 bus2=rdm3505.1.2 switch=n enabled=y phases=2 Linecode=1P_UG_AL_1/0_Brenau_2

New Line.l(r:rdm3504-rdt2063lv) Units=km Length=0.00828185 bus1=rdt2063lv.1.2 bus2=rdm3504.1.2 switch=n enabled=y phases=2 Linecode=1P_UG_AL_1/0_Brenau_2

New Line.l(r:p1rlv3514-rdt2064lv) Units=km Length=0.0192344 bus1=rdt2064lv.1.2 bus2=p1rlv3514.1.2 switch=n enabled=y phases=2 Linecode=1P_UG_AL_1/0_Brenau_2

New Line.l(r:p1rlv3515-rdt2065lv) Units=km Length=0.043726 bus1=rdt2065lv.1.2 bus2=p1rlv3515.1.2 switch=n enabled=y phases=2 Linecode=1P_UG_AL_1/0_Brenau_2

New Line.l(r:p1rlv3519-rdt2066lv) Units=km Length=0.0980867 bus1=rdt2066lv.1.2 bus2=p1rlv3519.1.2 switch=n enabled=y phases=2 Linecode=1P_OH_AL_4/0_Zuzara_2

New Line.l(r:p1rlv3516-rdm3508) Units=km Length=0.069413 bus1=rdm3508.1.2 bus2=p1rlv3516.1.2 switch=n enabled=y phases=2 Linecode=1P_OH_AL_4/0_Zuzara_2

New Line.l(r:rdm3508-rdt2066lv) Units=km Length=0.0180856 bus1=rdt2066lv.1.2 bus2=rdm3508.1.2 switch=n enabled=y phases=2 Linecode=1P_OH_AL_2/0_Rucina_2

New Line.l(r:p1rlv3517-rdm3510) Units=km Length=0.0615759 bus1=rdm3510.1.2 bus2=p1rlv3517.1.2 switch=n enabled=y phases=2 Linecode=1P_OH_AL_4/0_Zuzara_2

New Line.l(r:rdm3510-rdt2067lv) Units=km Length=0.0180819 bus1=rdt2067lv.1.2 bus2=rdm3510.1.2 switch=n enabled=y phases=2 Linecode=1P_OH_AL_2/0_Rucina_2

New Line.l(r:p1rlv3518-rdm3511) Units=km Length=0.0652378 bus1=rdm3511.1.2 bus2=p1rlv3518.1.2 switch=n enabled=y phases=2 Linecode=1P_OH_AL_4/0_Zuzara_2

New Line.l(r:rdm3511-rdt2067lv) Units=km Length=0.0180949 bus1=rdt2067lv.1.2 bus2=rdm3511.1.2 switch=n enabled=y phases=2 Linecode=1P_OH_AL_2/0_Rucina_2

New Line.l(r:p1rlv3521-rdt2068lv) Units=km Length=0.0772492 bus1=rdt2068lv.1.2 bus2=p1rlv3521.1.2 switch=n enabled=y phases=2 Linecode=1P_OH_AL_4/0_Zuzara_2

New Line.l(r:p1rlv3520-rdm3512) Units=km Length=0.0468142 bus1=rdm3512.1.2 bus2=p1rlv3520.1.2 switch=n enabled=y phases=2 Linecode=1P_OH_AL_4/0_Zuzara_2

New Line.l(r:p1rlv3523-rdm3512) Units=km Length=0.0804919 bus1=rdm3512.1.2 bus2=p1rlv3523.1.2 switch=n enabled=y phases=2 Linecode=1P_OH_AL_4/0_Zuzara_2

New Line.l(r:rdm3512-rdt2068lv) Units=km Length=0.0172563 bus1=rdt2068lv.1.2 bus2=rdm3512.1.2 switch=n enabled=y phases=2 Linecode=1P_OH_AL_2/0_Rucina_2

New Line.l(r:p1rlv3522-rdm3514) Units=km Length=0.108105 bus1=rdm3514.1.2 bus2=p1rlv3522.1.2 switch=n enabled=y phases=2 Linecode=1P_OH_AL_4/0_Zuzara_2

New Line.l(r:rdm3514-rdt2068lv) Units=km Length=0.0172422 bus1=rdt2068lv.1.2 bus2=rdm3514.1.2 switch=n enabled=y phases=2 Linecode=1P_OH_AL_2/0_Rucina_2

New Line.l(r:p1rlv3525-rdm3517) Units=km Length=0.026720900000000002 bus1=rdm3517.1.2 bus2=p1rlv3525.1.2 switch=n enabled=y phases=2 Linecode=1P_OH_AL_2/0_Rucina_2

New Line.l(r:rdm3517-rdt2070lv) Units=km Length=0.0363693 bus1=rdt2070lv.1.2 bus2=rdm3517.1.2 switch=n enabled=y phases=2 Linecode=1P_OH_AL_4/0_Zuzara_2

New Line.l(r:p1rlv3526-rdm3518) Units=km Length=0.0562856 bus1=rdm3518.1.2 bus2=p1rlv3526.1.2 switch=n enabled=y phases=2 Linecode=1P_OH_AL_4/0_Zuzara_2

New Line.l(r:rdm3518-rdt2070lv) Units=km Length=0.013323000000000002 bus1=rdt2070lv.1.2 bus2=rdm3518.1.2 switch=n enabled=y phases=2 Linecode=1P_OH_AL_2/0_Rucina_2

New Line.l(r:p1rlv3527-rdt2071lv) Units=km Length=0.073612 bus1=rdt2071lv.1.2 bus2=p1rlv3527.1.2 switch=n enabled=y phases=2 Linecode=1P_OH_AL_4/0_Zuzara_2

New Line.l(r:p1rlv3528-rdt2072lv) Units=km Length=0.0868666 bus1=rdt2072lv.1.2 bus2=p1rlv3528.1.2 switch=n enabled=y phases=2 Linecode=1P_OH_AL_4/0_Zuzara_2

New Line.l(r:p1rlv3529-rdt2073lv) Units=km Length=0.0379543 bus1=rdt2073lv.1.2 bus2=p1rlv3529.1.2 switch=n enabled=y phases=2 Linecode=1P_OH_AL_4/0_Zuzara_2

New Line.l(r:p1rlv3530-rdt2074lv) Units=km Length=0.001 bus1=rdt2074lv.1.2 bus2=p1rlv3530.1.2 switch=n enabled=y phases=2 Linecode=1P_OH_AL_4_Periwinkle_2

New Line.l(r:p1rlv3531-rdt2075lv) Units=km Length=0.0321865 bus1=rdt2075lv.1.2 bus2=p1rlv3531.1.2 switch=n enabled=y phases=2 Linecode=1P_OH_AL_4/0_Zuzara_2

New Line.l(r:p1rlv3532-rdm3524) Units=km Length=0.0383516 bus1=rdm3524.1.2 bus2=p1rlv3532.1.2 switch=n enabled=y phases=2 Linecode=1P_OH_AL_4/0_Zuzara_2

New Line.l(r:rdm3524-rdt2076lv) Units=km Length=0.0104735 bus1=rdt2076lv.1.2 bus2=rdm3524.1.2 switch=n enabled=y phases=2 Linecode=1P_OH_AL_2/0_Rucina_2

New Line.l(r:p1rlv3535-rdm3525) Units=km Length=0.050452300000000005 bus1=rdm3525.1.2 bus2=p1rlv3535.1.2 switch=n enabled=y phases=2 Linecode=1P_OH_AL_4/0_Zuzara_2

New Line.l(r:rdm3525-rdt2076lv) Units=km Length=0.0333143 bus1=rdt2076lv.1.2 bus2=rdm3525.1.2 switch=n enabled=y phases=2 Linecode=1P_OH_AL_4/0_Zuzara_2

New Line.l(r:p1rlv3533-rdt2077lv) Units=km Length=0.09871860000000002 bus1=rdt2077lv.1.2 bus2=p1rlv3533.1.2 switch=n enabled=y phases=2 Linecode=1P_OH_AL_4/0_Zuzara_2

New Line.l(r:p1rlv3534-rdt2078lv) Units=km Length=0.0225792 bus1=rdt2078lv.1.2 bus2=p1rlv3534.1.2 switch=n enabled=y phases=2 Linecode=1P_OH_AL_2/0_Rucina_2

New Line.l(r:p1rlv3536-rdt2079lv) Units=km Length=0.0587665 bus1=rdt2079lv.1.2 bus2=p1rlv3536.1.2 switch=n enabled=y phases=2 Linecode=1P_OH_AL_4/0_Zuzara_2

New Line.l(r:p1rlv3537-rdt2080lv) Units=km Length=0.05084650000000001 bus1=rdt2080lv.1.2 bus2=p1rlv3537.1.2 switch=n enabled=y phases=2 Linecode=1P_OH_AL_4/0_Zuzara_2

New Line.l(r:p1rlv3538-rdt2081lv) Units=km Length=0.0480558 bus1=rdt2081lv.1.2 bus2=p1rlv3538.1.2 switch=n enabled=y phases=2 Linecode=1P_OH_AL_4/0_Zuzara_2

New Line.l(r:p1rlv3539-rdm3531) Units=km Length=0.0267961 bus1=rdm3531.1.2 bus2=p1rlv3539.1.2 switch=n enabled=y phases=2 Linecode=1P_OH_AL_2/0_Rucina_2

New Line.l(r:rdm3531-rdt2082lv) Units=km Length=0.0192269 bus1=rdt2082lv.1.2 bus2=rdm3531.1.2 switch=n enabled=y phases=2 Linecode=1P_OH_AL_2/0_Rucina_2

New Line.l(r:p1rlv3541-rdm3532) Units=km Length=0.0701277 bus1=rdm3532.1.2 bus2=p1rlv3541.1.2 switch=n enabled=y phases=2 Linecode=1P_OH_AL_4/0_Zuzara_2

New Line.l(r:rdm3532-rdt2082lv) Units=km Length=0.0192364 bus1=rdt2082lv.1.2 bus2=rdm3532.1.2 switch=n enabled=y phases=2 Linecode=1P_OH_AL_2/0_Rucina_2

New Line.l(r:p1rlv3540-rdt2083lv) Units=km Length=0.06121820000000001 bus1=rdt2083lv.1.2 bus2=p1rlv3540.1.2 switch=n enabled=y phases=2 Linecode=1P_OH_AL_4/0_Zuzara_2

New Line.l(r:p1rlv3542-rdt2084lv) Units=km Length=0.0161138 bus1=rdt2084lv.1.2 bus2=p1rlv3542.1.2 switch=n enabled=y phases=2 Linecode=1P_OH_AL_2/0_Rucina_2

New Line.l(r:p1rlv3543-rdt2084lv) Units=km Length=0.0161138 bus1=rdt2084lv.1.2 bus2=p1rlv3543.1.2 switch=n enabled=y phases=2 Linecode=1P_OH_AL_2/0_Rucina_2

New Line.l(r:p1rlv3544-rdt2085lv) Units=km Length=0.099514 bus1=rdt2085lv.1.2 bus2=p1rlv3544.1.2 switch=n enabled=y phases=2 Linecode=1P_OH_AL_4/0_Zuzara_2

New Line.l(r:p1rlv3545-rdt2086lv) Units=km Length=0.0276768 bus1=rdt2086lv.1.2 bus2=p1rlv3545.1.2 switch=n enabled=y phases=2 Linecode=1P_OH_AL_4/0_Zuzara_2

New Line.l(r:p1rlv3546-rdt2087lv) Units=km Length=0.0146981 bus1=rdt2087lv.1.2 bus2=p1rlv3546.1.2 switch=n enabled=y phases=2 Linecode=1P_OH_AL_2/0_Rucina_2

New Line.l(r:p1rlv3547-rdt2088lv) Units=km Length=0.0399485 bus1=rdt2088lv.1.2 bus2=p1rlv3547.1.2 switch=n enabled=y phases=2 Linecode=1P_OH_AL_4/0_Zuzara_2

New Line.l(r:p1rlv3548-rdt2088lv) Units=km Length=0.0193995 bus1=rdt2088lv.1.2 bus2=p1rlv3548.1.2 switch=n enabled=y phases=2 Linecode=1P_OH_AL_2/0_Rucina_2

New Line.l(r:p1rlv3549-rdt2088lv) Units=km Length=0.0304725 bus1=rdt2088lv.1.2 bus2=p1rlv3549.1.2 switch=n enabled=y phases=2 Linecode=1P_OH_AL_4/0_Zuzara_2

New Line.l(r:p1rlv3550-rdt2088lv) Units=km Length=0.0222019 bus1=rdt2088lv.1.2 bus2=p1rlv3550.1.2 switch=n enabled=y phases=2 Linecode=1P_OH_AL_2/0_Rucina_2

New Line.l(r:p1rlv3551-rdm3543) Units=km Length=0.0543185 bus1=rdm3543.1.2 bus2=p1rlv3551.1.2 switch=n enabled=y phases=2 Linecode=1P_OH_AL_4/0_Zuzara_2

New Line.l(r:rdm3543-rdt2089lv) Units=km Length=0.0190814 bus1=rdt2089lv.1.2 bus2=rdm3543.1.2 switch=n enabled=y phases=2 Linecode=1P_OH_AL_2/0_Rucina_2

New Line.l(r:p1rlv3555-rdm3544) Units=km Length=0.03955970000000001 bus1=rdm3544.1.2 bus2=p1rlv3555.1.2 switch=n enabled=y phases=2 Linecode=1P_OH_AL_4/0_Zuzara_2

New Line.l(r:rdm3544-rdt2089lv) Units=km Length=0.0190914 bus1=rdt2089lv.1.2 bus2=rdm3544.1.2 switch=n enabled=y phases=2 Linecode=1P_OH_AL_2/0_Rucina_2

New Line.l(r:p1rlv3552-rdt2090lv) Units=km Length=0.053178500000000004 bus1=rdt2090lv.1.2 bus2=p1rlv3552.1.2 switch=n enabled=y phases=2 Linecode=1P_OH_AL_4/0_Zuzara_2

New Line.l(r:p1rlv3553-rdt2091lv) Units=km Length=0.0119239 bus1=rdt2091lv.1.2 bus2=p1rlv3553.1.2 switch=n enabled=y phases=2 Linecode=1P_OH_AL_2/0_Rucina_2

New Line.l(r:p1rlv3554-rdt2091lv) Units=km Length=0.0119239 bus1=rdt2091lv.1.2 bus2=p1rlv3554.1.2 switch=n enabled=y phases=2 Linecode=1P_OH_AL_2/0_Rucina_2

New Line.l(r:p1rlv3557-rdt2092lv) Units=km Length=0.0755408 bus1=rdt2092lv.1.2 bus2=p1rlv3557.1.2 switch=n enabled=y phases=2 Linecode=1P_OH_AL_4/0_Zuzara_2

New Line.l(r:p1rlv3558-rdt2092lv) Units=km Length=0.097712 bus1=rdt2092lv.1.2 bus2=p1rlv3558.1.2 switch=n enabled=y phases=2 Linecode=1P_OH_AL_4/0_Zuzara_2

New Line.l(r:p1rlv3556-rdm3548) Units=km Length=0.0349606 bus1=rdm3548.1.2 bus2=p1rlv3556.1.2 switch=n enabled=y phases=2 Linecode=1P_OH_AL_4/0_Zuzara_2

New Line.l(r:rdm3548-rdt2092lv) Units=km Length=0.0190918 bus1=rdt2092lv.1.2 bus2=rdm3548.1.2 switch=n enabled=y phases=2 Linecode=1P_OH_AL_2/0_Rucina_2

New Line.l(r:p1rlv3559-rdt2093lv) Units=km Length=0.0795841 bus1=rdt2093lv.1.2 bus2=p1rlv3559.1.2 switch=n enabled=y phases=2 Linecode=1P_OH_AL_4/0_Zuzara_2

New Line.l(r:p1rlv3562-rdt2094lv) Units=km Length=0.001 bus1=rdt2094lv.1.2 bus2=p1rlv3562.1.2 switch=n enabled=y phases=2 Linecode=1P_OH_AL_4_Periwinkle_2

New Line.l(r:p1rlv3563-rdt2095lv) Units=km Length=0.0388277 bus1=rdt2095lv.1.2 bus2=p1rlv3563.1.2 switch=n enabled=y phases=2 Linecode=1P_OH_AL_4/0_Zuzara_2

New Line.l(r:p1rlv3564-rdt2095lv) Units=km Length=0.0157138 bus1=rdt2095lv.1.2 bus2=p1rlv3564.1.2 switch=n enabled=y phases=2 Linecode=1P_OH_AL_2/0_Rucina_2

New Line.l(r:p1rlv3565-rdt2095lv) Units=km Length=0.0298838 bus1=rdt2095lv.1.2 bus2=p1rlv3565.1.2 switch=n enabled=y phases=2 Linecode=1P_OH_AL_4/0_Zuzara_2

New Line.l(r:p1rlv3566-rdt2096lv) Units=km Length=0.001 bus1=rdt2096lv.1.2 bus2=p1rlv3566.1.2 switch=n enabled=y phases=2 Linecode=1P_OH_AL_4_Periwinkle_2

New Line.l(r:p1rlv3567-rdt2097lv) Units=km Length=0.0560699 bus1=rdt2097lv.1.2 bus2=p1rlv3567.1.2 switch=n enabled=y phases=2 Linecode=1P_OH_AL_4/0_Zuzara_2

New Line.l(r:p1rlv3568-rdm3558) Units=km Length=0.0337057 bus1=rdm3558.1.2 bus2=p1rlv3568.1.2 switch=n enabled=y phases=2 Linecode=1P_OH_AL_4/0_Zuzara_2

New Line.l(r:rdm3558-rdt2098lv) Units=km Length=0.0330683 bus1=rdt2098lv.1.2 bus2=rdm3558.1.2 switch=n enabled=y phases=2 Linecode=1P_OH_AL_4/0_Zuzara_2

New Line.l(r:p1rlv3570-rdm3559) Units=km Length=0.0366526 bus1=rdm3559.1.2 bus2=p1rlv3570.1.2 switch=n enabled=y phases=2 Linecode=1P_OH_AL_4/0_Zuzara_2

New Line.l(r:rdm3559-rdt2098lv) Units=km Length=0.0329461 bus1=rdt2098lv.1.2 bus2=rdm3559.1.2 switch=n enabled=y phases=2 Linecode=1P_OH_AL_4/0_Zuzara_2

New Line.l(r:p1rlv3569-rdt2099lv) Units=km Length=0.001 bus1=rdt2099lv.1.2 bus2=p1rlv3569.1.2 switch=n enabled=y phases=2 Linecode=1P_OH_AL_4_Periwinkle_2

New Line.l(r:p1rlv3571-rdt2100lv) Units=km Length=0.0480828 bus1=rdt2100lv.1.2 bus2=p1rlv3571.1.2 switch=n enabled=y phases=2 Linecode=1P_OH_AL_4/0_Zuzara_2

New Line.l(r:p1rlv3908-rdt2272lv) Units=km Length=0.07617160000000002 bus1=rdt2272lv.1.2 bus2=p1rlv3908.1.2 switch=n enabled=y phases=2 Linecode=1P_OH_AL_4/0_Zuzara_2

New Line.l(r:p1rlv3913-rdt2272lv) Units=km Length=0.100327 bus1=rdt2272lv.1.2 bus2=p1rlv3913.1.2 switch=n enabled=y phases=2 Linecode=1P_OH_AL_4/0_Zuzara_2

New Line.l(r:p1rlv3909-rdt2273lv) Units=km Length=0.0190851 bus1=rdt2273lv.1.2 bus2=p1rlv3909.1.2 switch=n enabled=y phases=2 Linecode=1P_OH_AL_2/0_Rucina_2

New Line.l(r:p1rlv3910-rdt2273lv) Units=km Length=0.0237189 bus1=rdt2273lv.1.2 bus2=p1rlv3910.1.2 switch=n enabled=y phases=2 Linecode=1P_OH_AL_2/0_Rucina_2

New Line.l(r:p1rlv3911-rdt2273lv) Units=km Length=0.0553979 bus1=rdt2273lv.1.2 bus2=p1rlv3911.1.2 switch=n enabled=y phases=2 Linecode=1P_OH_AL_4/0_Zuzara_2

New Line.l(r:p1rlv3912-rdt2273lv) Units=km Length=0.074756 bus1=rdt2273lv.1.2 bus2=p1rlv3912.1.2 switch=n enabled=y phases=2 Linecode=1P_OH_AL_4/0_Zuzara_2

New Line.l(r:p1rlv3914-rdm3899) Units=km Length=0.030311700000000004 bus1=rdm3899.1.2 bus2=p1rlv3914.1.2 switch=n enabled=y phases=2 Linecode=1P_OH_AL_4/0_Zuzara_2

New Line.l(r:rdm3899-rdt2274lv) Units=km Length=0.0167065 bus1=rdt2274lv.1.2 bus2=rdm3899.1.2 switch=n enabled=y phases=2 Linecode=1P_OH_AL_2/0_Rucina_2

New Line.l(r:p1rlv3915-rdm3900) Units=km Length=0.0310087 bus1=rdm3900.1.2 bus2=p1rlv3915.1.2 switch=n enabled=y phases=2 Linecode=1P_OH_AL_4/0_Zuzara_2

New Line.l(r:rdm3900-rdt2274lv) Units=km Length=0.0501394 bus1=rdt2274lv.1.2 bus2=rdm3900.1.2 switch=n enabled=y phases=2 Linecode=1P_OH_AL_4/0_Zuzara_2

New Line.l(r:p1rlv3916-rdt2275lv) Units=km Length=0.0146598 bus1=rdt2275lv.1.2 bus2=p1rlv3916.1.2 switch=n enabled=y phases=2 Linecode=1P_OH_AL_2/0_Rucina_2

New Line.l(r:p1rlv3917-rdt2275lv) Units=km Length=0.0146598 bus1=rdt2275lv.1.2 bus2=p1rlv3917.1.2 switch=n enabled=y phases=2 Linecode=1P_OH_AL_2/0_Rucina_2

New Line.l(r:p1rlv3918-rdt2276lv) Units=km Length=0.0769491 bus1=rdt2276lv.1.2 bus2=p1rlv3918.1.2 switch=n enabled=y phases=2 Linecode=1P_OH_AL_4/0_Zuzara_2

New Line.l(r:p1rlv3919-rdt2277lv) Units=km Length=0.0648792 bus1=rdt2277lv.1.2 bus2=p1rlv3919.1.2 switch=n enabled=y phases=2 Linecode=1P_OH_AL_4/0_Zuzara_2

New Line.l(r:p1rlv3921-rdt2278lv) Units=km Length=0.111507 bus1=rdt2278lv.1.2 bus2=p1rlv3921.1.2 switch=n enabled=y phases=2 Linecode=1P_OH_AL_4/0_Zuzara_2

New Line.l(r:p1rlv3920-rdm3905) Units=km Length=0.0649559 bus1=rdm3905.1.2 bus2=p1rlv3920.1.2 switch=n enabled=y phases=2 Linecode=1P_OH_AL_4/0_Zuzara_2

New Line.l(r:rdm3905-rdt2278lv) Units=km Length=0.0115604 bus1=rdt2278lv.1.2 bus2=rdm3905.1.2 switch=n enabled=y phases=2 Linecode=1P_OH_AL_2/0_Rucina_2

New Line.l(r:p1rlv3922-rdt2279lv) Units=km Length=0.05067230000000001 bus1=rdt2279lv.1.2 bus2=p1rlv3922.1.2 switch=n enabled=y phases=2 Linecode=1P_OH_AL_4/0_Zuzara_2

New Line.l(r:p1rlv3923-rdt2280lv) Units=km Length=0.063683 bus1=rdt2280lv.1.2 bus2=p1rlv3923.1.2 switch=n enabled=y phases=2 Linecode=1P_OH_AL_4/0_Zuzara_2

New Line.l(r:p1rlv3924-rdt2281lv) Units=km Length=0.001 bus1=rdt2281lv.1.2 bus2=p1rlv3924.1.2 switch=n enabled=y phases=2 Linecode=1P_OH_AL_4_Periwinkle_2

New Line.l(r:p1rlv3926-rdt2283lv) Units=km Length=0.0669404 bus1=rdt2283lv.1.2 bus2=p1rlv3926.1.2 switch=n enabled=y phases=2 Linecode=1P_OH_AL_4/0_Zuzara_2

New Line.l(r:p1rlv3927-rdt2283lv) Units=km Length=0.0374158 bus1=rdt2283lv.1.2 bus2=p1rlv3927.1.2 switch=n enabled=y phases=2 Linecode=1P_OH_AL_4/0_Zuzara_2

New Line.l(r:p1rlv3928-rdt2284lv) Units=km Length=0.04778310000000001 bus1=rdt2284lv.1.2 bus2=p1rlv3928.1.2 switch=n enabled=y phases=2 Linecode=1P_OH_AL_4/0_Zuzara_2

New Line.l(r:p1rlv3929-rdt2285lv) Units=km Length=0.0280126 bus1=rdt2285lv.1.2 bus2=p1rlv3929.1.2 switch=n enabled=y phases=2 Linecode=1P_OH_AL_4/0_Zuzara_2

New Line.l(r:p1rlv3932-rdm3915) Units=km Length=0.0296758 bus1=rdm3915.1.2 bus2=p1rlv3932.1.2 switch=n enabled=y phases=2 Linecode=1P_OH_AL_4/0_Zuzara_2

New Line.l(r:p1rlv3933-rdm3915) Units=km Length=0.0521582 bus1=rdm3915.1.2 bus2=p1rlv3933.1.2 switch=n enabled=y phases=2 Linecode=1P_OH_AL_4/0_Zuzara_2

New Line.l(r:rdm3915-rdt2285lv) Units=km Length=0.0166687 bus1=rdt2285lv.1.2 bus2=rdm3915.1.2 switch=n enabled=y phases=2 Linecode=1P_OH_AL_2/0_Rucina_2

New Line.l(r:p1rlv3930-rdt2286lv) Units=km Length=0.0306946 bus1=rdt2286lv.1.2 bus2=p1rlv3930.1.2 switch=n enabled=y phases=2 Linecode=1P_OH_AL_4/0_Zuzara_2

New Line.l(r:p1rlv3931-rdt2286lv) Units=km Length=0.0198512 bus1=rdt2286lv.1.2 bus2=p1rlv3931.1.2 switch=n enabled=y phases=2 Linecode=1P_OH_AL_2/0_Rucina_2

New Line.l(r:p1rlv3934-rdt2287lv) Units=km Length=0.001 bus1=rdt2287lv.1.2 bus2=p1rlv3934.1.2 switch=n enabled=y phases=2 Linecode=1P_OH_AL_4_Periwinkle_2

New Line.l(r:p1rlv3936-rdt2288lv) Units=km Length=0.072368 bus1=rdt2288lv.1.2 bus2=p1rlv3936.1.2 switch=n enabled=y phases=2 Linecode=1P_OH_AL_4/0_Zuzara_2

New Line.l(r:p1rlv3935-rdm3920) Units=km Length=0.0712001 bus1=rdm3920.1.2 bus2=p1rlv3935.1.2 switch=n enabled=y phases=2 Linecode=1P_OH_AL_4/0_Zuzara_2

New Line.l(r:rdm3920-rdt2288lv) Units=km Length=0.0163546 bus1=rdt2288lv.1.2 bus2=rdm3920.1.2 switch=n enabled=y phases=2 Linecode=1P_OH_AL_2/0_Rucina_2

New Line.l(r:p1rlv3937-rdm3922) Units=km Length=0.0597772 bus1=rdm3922.1.2 bus2=p1rlv3937.1.2 switch=n enabled=y phases=2 Linecode=1P_UG_AL_1/0_Brenau_2

New Line.l(r:rdm3922-rdt2289lv) Units=km Length=0.01728 bus1=rdt2289lv.1.2 bus2=rdm3922.1.2 switch=n enabled=y phases=2 Linecode=1P_UG_AL_1/0_Brenau_2

New Line.l(r:p1rlv3938-rdm3923) Units=km Length=0.0636613 bus1=rdm3923.1.2 bus2=p1rlv3938.1.2 switch=n enabled=y phases=2 Linecode=1P_UG_AL_2/0_Converse_2

New Line.l(r:p1rlv3939-rdm3924) Units=km Length=0.0455589 bus1=rdm3924.1.2 bus2=p1rlv3939.1.2 switch=n enabled=y phases=2 Linecode=1P_UG_AL_1/0_Brenau_2

New Line.l(r:rdm3923-rdm3924) Units=km Length=0.00865069 bus1=rdm3923.1.2 bus2=rdm3924.1.2 switch=n enabled=y phases=2 Linecode=1P_UG_AL_1/0_Brenau_2

New Line.l(r:rdm3923-rdt2289lv) Units=km Length=0.008640830000000002 bus1=rdt2289lv.1.2 bus2=rdm3923.1.2 switch=n enabled=y phases=2 Linecode=1P_UG_AL_4/0_Sweetbriar_2

New Line.l(r:p1rlv3942-rdt2290lv) Units=km Length=0.0748171 bus1=rdt2290lv.1.2 bus2=p1rlv3942.1.2 switch=n enabled=y phases=2 Linecode=1P_UG_AL_1/0_Brenau_2

New Line.l(r:p1rlv3943-rdt2290lv) Units=km Length=0.0539897 bus1=rdt2290lv.1.2 bus2=p1rlv3943.1.2 switch=n enabled=y phases=2 Linecode=1P_UG_AL_1/0_Brenau_2

New Line.l(r:p1rlv3941-rdm3926) Units=km Length=0.10268200000000001 bus1=rdm3926.1.2 bus2=p1rlv3941.1.2 switch=n enabled=y phases=2 Linecode=1P_UG_AL_1/0_Brenau_2

New Line.l(r:p1rlv3940-rdm3925) Units=km Length=0.0798226 bus1=rdm3925.1.2 bus2=p1rlv3940.1.2 switch=n enabled=y phases=2 Linecode=1P_UG_AL_1/0_Brenau_2

New Line.l(r:rdm3925-rdm3926) Units=km Length=0.0454006 bus1=rdm3926.1.2 bus2=rdm3925.1.2 switch=n enabled=y phases=2 Linecode=1P_UG_AL_1/0_Brenau_2

New Line.l(r:rdm3926-rdt2290lv) Units=km Length=0.00993125 bus1=rdt2290lv.1.2 bus2=rdm3926.1.2 switch=n enabled=y phases=2 Linecode=1P_UG_AL_1/0_Brenau_2

New Line.l(r:p1rlv3945-rdm3929) Units=km Length=0.0655779 bus1=rdm3929.1.2 bus2=p1rlv3945.1.2 switch=n enabled=y phases=2 Linecode=1P_UG_AL_1/0_Brenau_2

New Line.l(r:rdm3929-rdt2290lv) Units=km Length=0.029756700000000004 bus1=rdt2290lv.1.2 bus2=rdm3929.1.2 switch=n enabled=y phases=2 Linecode=1P_UG_AL_1/0_Brenau_2

New Line.l(r:p1rlv3944-rdt2291lv) Units=km Length=0.0418788 bus1=rdt2291lv.1.2 bus2=p1rlv3944.1.2 switch=n enabled=y phases=2 Linecode=1P_UG_AL_1/0_Brenau_2

New Line.l(r:p1rlv3946-rdt2291lv) Units=km Length=0.0279874 bus1=rdt2291lv.1.2 bus2=p1rlv3946.1.2 switch=n enabled=y phases=2 Linecode=1P_UG_AL_1/0_Brenau_2

New Line.l(r:p1rlv3948-rdt2293lv) Units=km Length=0.0654089 bus1=rdt2293lv.1.2 bus2=p1rlv3948.1.2 switch=n enabled=y phases=2 Linecode=1P_OH_AL_4/0_Zuzara_2

New Line.l(r:p1rlv3949-rdt2294lv) Units=km Length=0.0527614 bus1=rdt2294lv.1.2 bus2=p1rlv3949.1.2 switch=n enabled=y phases=2 Linecode=1P_OH_AL_4/0_Zuzara_2

New Line.l(r:p1rlv3950-rdt2295lv) Units=km Length=0.0703525 bus1=rdt2295lv.1.2 bus2=p1rlv3950.1.2 switch=n enabled=y phases=2 Linecode=1P_OH_AL_4/0_Zuzara_2

New Line.l(r:p1rlv3951-rdm3936) Units=km Length=0.032904600000000006 bus1=rdm3936.1.2 bus2=p1rlv3951.1.2 switch=n enabled=y phases=2 Linecode=1P_OH_AL_4/0_Zuzara_2

New Line.l(r:rdm3936-rdt2296lv) Units=km Length=0.0352199 bus1=rdt2296lv.1.2 bus2=rdm3936.1.2 switch=n enabled=y phases=2 Linecode=1P_OH_AL_4/0_Zuzara_2

New Line.l(r:p1rlv3952-rdm3937) Units=km Length=0.0162758 bus1=rdm3937.1.2 bus2=p1rlv3952.1.2 switch=n enabled=y phases=2 Linecode=1P_OH_AL_2/0_Rucina_2

New Line.l(r:rdm3937-rdt2296lv) Units=km Length=0.016811300000000005 bus1=rdt2296lv.1.2 bus2=rdm3937.1.2 switch=n enabled=y phases=2 Linecode=1P_OH_AL_2/0_Rucina_2

New Line.l(r:p1rlv3953-rdt2297lv) Units=km Length=0.0194422 bus1=rdt2297lv.1.2 bus2=p1rlv3953.1.2 switch=n enabled=y phases=2 Linecode=1P_OH_AL_2/0_Rucina_2

New Line.l(r:p1rlv3954-rdt2298lv) Units=km Length=0.0433725 bus1=rdt2298lv.1.2 bus2=p1rlv3954.1.2 switch=n enabled=y phases=2 Linecode=1P_OH_AL_4/0_Zuzara_2

New Line.l(r:p1rlv3955-rdt2299lv) Units=km Length=0.0341542 bus1=rdt2299lv.1.2 bus2=p1rlv3955.1.2 switch=n enabled=y phases=2 Linecode=1P_OH_AL_4/0_Zuzara_2

New Line.l(r:p1rlv3956-rdt2300lv) Units=km Length=0.0387103 bus1=rdt2300lv.1.2 bus2=p1rlv3956.1.2 switch=n enabled=y phases=2 Linecode=1P_OH_AL_4/0_Zuzara_2

New Line.l(r:p1rlv3957-rdt2301lv) Units=km Length=0.0954584 bus1=rdt2301lv.1.2 bus2=p1rlv3957.1.2 switch=n enabled=y phases=2 Linecode=1P_OH_AL_4/0_Zuzara_2

New Line.l(r:p1rlv3958-rdt2302lv) Units=km Length=0.001 bus1=rdt2302lv.1.2 bus2=p1rlv3958.1.2 switch=n enabled=y phases=2 Linecode=1P_UG_AL_1/0_Brenau_2

New Line.l(r:p1rlv3959-rdt2303lv) Units=km Length=0.001 bus1=rdt2303lv.1.2 bus2=p1rlv3959.1.2 switch=n enabled=y phases=2 Linecode=1P_OH_AL_4_Periwinkle_2

New Line.l(r:p1rlv3960-rdt2304lv) Units=km Length=0.001 bus1=rdt2304lv.1.2 bus2=p1rlv3960.1.2 switch=n enabled=y phases=2 Linecode=1P_OH_AL_4_Periwinkle_2

New Line.l(r:p1rlv3961-rdm3946) Units=km Length=0.0580539 bus1=rdm3946.1.2 bus2=p1rlv3961.1.2 switch=n enabled=y phases=2 Linecode=1P_UG_AL_1/0_Brenau_2

New Line.l(r:rdm3946-rdt2305lv) Units=km Length=0.027292000000000004 bus1=rdt2305lv.1.2 bus2=rdm3946.1.2 switch=n enabled=y phases=2 Linecode=1P_UG_AL_1/0_Brenau_2

New Line.l(r:p1rlv3992-rdm3948) Units=km Length=0.0400429 bus1=rdm3948.1.2 bus2=p1rlv3992.1.2 switch=n enabled=y phases=2 Linecode=1P_UG_AL_1/0_Brenau_2

...