data/smartds/2018/GSO/rural/scenarios/base_timeseries/opendss/rhs2_1247/rhs2_1247--rdt1264/Loads.dss
New Load.load_p1rlv2106_1 conn=wye bus1=p1rlv2106.1 kV=0.12 Vminpu=0.8 Vmaxpu=1.2 model=1 kW=3.460037762068802 kvar=0.6117019426679855 Phases=1 yearly=res_kw_205_pu

New Load.load_p1rlv2106_2 conn=wye bus1=p1rlv2106.2 kV=0.12 Vminpu=0.8 Vmaxpu=1.2 model=1 kW=3.460037762068802 kvar=0.6117019426679855 Phases=1 yearly=res_kw_205_pu

New Load.load_p1rlv2107_1 conn=wye bus1=p1rlv2107.1 kV=0.12 Vminpu=0.8 Vmaxpu=1.2 model=1 kW=5.723135606665604 kvar=1.5038194991101048 Phases=1 yearly=res_kw_1228_pu

New Load.load_p1rlv2107_2 conn=wye bus1=p1rlv2107.2 kV=0.12 Vminpu=0.8 Vmaxpu=1.2 model=1 kW=5.723135606665604 kvar=1.5038194991101048 Phases=1 yearly=res_kw_1228_pu

New Load.load_p1rlv2108_1 conn=wye bus1=p1rlv2108.1 kV=0.12 Vminpu=0.8 Vmaxpu=1.2 model=1 kW=7.088530083600876 kvar=2.6134476319600712 Phases=1 yearly=res_kw_267_pu

New Load.load_p1rlv2108_2 conn=wye bus1=p1rlv2108.2 kV=0.12 Vminpu=0.8 Vmaxpu=1.2 model=1 kW=7.088530083600876 kvar=2.6134476319600712 Phases=1 yearly=res_kw_267_pu

New Load.load_p1rlv2109_1 conn=wye bus1=p1rlv2109.1 kV=0.12 Vminpu=0.8 Vmaxpu=1.2 model=1 kW=4.530943241329597 kvar=1.22568816537114 Phases=1 yearly=res_kw_908_pu

New Load.load_p1rlv2109_2 conn=wye bus1=p1rlv2109.2 kV=0.12 Vminpu=0.8 Vmaxpu=1.2 model=1 kW=4.530943241329597 kvar=1.22568816537114 Phases=1 yearly=res_kw_908_pu

New Load.load_p1rlv2110_1 conn=wye bus1=p1rlv2110.1 kV=0.12 Vminpu=0.8 Vmaxpu=1.2 model=1 kW=2.9898249364160714 kvar=0.2983164502279761 Phases=1 yearly=res_kw_1070_pu

New Load.load_p1rlv2110_2 conn=wye bus1=p1rlv2110.2 kV=0.12 Vminpu=0.8 Vmaxpu=1.2 model=1 kW=2.9898249364160714 kvar=0.2983164502279761 Phases=1 yearly=res_kw_1070_pu

New Load.load_p1rlv2111_1 conn=wye bus1=p1rlv2111.1 kV=0.12 Vminpu=0.8 Vmaxpu=1.2 model=1 kW=5.6593015111322105 kvar=1.2761251920573724 Phases=1 yearly=res_kw_324_pu

New Load.load_p1rlv2111_2 conn=wye bus1=p1rlv2111.2 kV=0.12 Vminpu=0.8 Vmaxpu=1.2 model=1 kW=5.6593015111322105 kvar=1.2761251920573724 Phases=1 yearly=res_kw_324_pu

New Load.load_p1rlv2112_1 conn=wye bus1=p1rlv2112.1 kV=0.12 Vminpu=0.8 Vmaxpu=1.2 model=1 kW=3.6844020253442458 kvar=1.4451491397155931 Phases=1 yearly=res_kw_1258_pu

New Load.load_p1rlv2112_2 conn=wye bus1=p1rlv2112.2 kV=0.12 Vminpu=0.8 Vmaxpu=1.2 model=1 kW=3.6844020253442458 kvar=1.4451491397155931 Phases=1 yearly=res_kw_1258_pu

New Load.load_p1rlv2113_1 conn=wye bus1=p1rlv2113.1 kV=0.12 Vminpu=0.8 Vmaxpu=1.2 model=1 kW=1.07594874218897 kvar=0.4942830176942115 Phases=1 yearly=res_kw_366_pu

New Load.load_p1rlv2113_2 conn=wye bus1=p1rlv2113.2 kV=0.12 Vminpu=0.8 Vmaxpu=1.2 model=1 kW=1.07594874218897 kvar=0.4942830176942115 Phases=1 yearly=res_kw_366_pu

New Load.load_p1rlv2114_1 conn=wye bus1=p1rlv2114.1 kV=0.12 Vminpu=0.8 Vmaxpu=1.2 model=1 kW=2.623267981089487 kvar=1.212519304398851 Phases=1 yearly=res_kw_452_pu

New Load.load_p1rlv2114_2 conn=wye bus1=p1rlv2114.2 kV=0.12 Vminpu=0.8 Vmaxpu=1.2 model=1 kW=2.623267981089487 kvar=1.212519304398851 Phases=1 yearly=res_kw_452_pu

New Load.load_p1rlv2115_1 conn=wye bus1=p1rlv2115.1 kV=0.12 Vminpu=0.8 Vmaxpu=1.2 model=1 kW=4.792624300749482 kvar=1.1139407265067676 Phases=1 yearly=res_kw_898_pu

New Load.load_p1rlv2115_2 conn=wye bus1=p1rlv2115.2 kV=0.12 Vminpu=0.8 Vmaxpu=1.2 model=1 kW=4.792624300749482 kvar=1.1139407265067676 Phases=1 yearly=res_kw_898_pu

New Load.load_p1rlv2116_1 conn=wye bus1=p1rlv2116.1 kV=0.12 Vminpu=0.8 Vmaxpu=1.2 model=1 kW=1.07594874218897 kvar=0.4942830176942115 Phases=1 yearly=res_kw_366_pu

New Load.load_p1rlv2116_2 conn=wye bus1=p1rlv2116.2 kV=0.12 Vminpu=0.8 Vmaxpu=1.2 model=1 kW=1.07594874218897 kvar=0.4942830176942115 Phases=1 yearly=res_kw_366_pu

New Load.load_p1rlv2117_1 conn=wye bus1=p1rlv2117.1 kV=0.12 Vminpu=0.8 Vmaxpu=1.2 model=1 kW=3.9060227283575606 kvar=0.8578020352767629 Phases=1 yearly=res_kw_278_pu

New Load.load_p1rlv2117_2 conn=wye bus1=p1rlv2117.2 kV=0.12 Vminpu=0.8 Vmaxpu=1.2 model=1 kW=3.9060227283575606 kvar=0.8578020352767629 Phases=1 yearly=res_kw_278_pu

New Load.load_p1rlv2118_1 conn=wye bus1=p1rlv2118.1 kV=0.12 Vminpu=0.8 Vmaxpu=1.2 model=1 kW=2.40000228705824 kvar=1.0173787262529668 Phases=1 yearly=res_kw_1205_pu

New Load.load_p1rlv2118_2 conn=wye bus1=p1rlv2118.2 kV=0.12 Vminpu=0.8 Vmaxpu=1.2 model=1 kW=2.40000228705824 kvar=1.0173787262529668 Phases=1 yearly=res_kw_1205_pu

New Load.load_p1rlv2119_1 conn=wye bus1=p1rlv2119.1 kV=0.12 Vminpu=0.8 Vmaxpu=1.2 model=1 kW=4.278318909946325 kvar=1.3258964507916957 Phases=1 yearly=res_kw_1246_pu

New Load.load_p1rlv2119_2 conn=wye bus1=p1rlv2119.2 kV=0.12 Vminpu=0.8 Vmaxpu=1.2 model=1 kW=4.278318909946325 kvar=1.3258964507916957 Phases=1 yearly=res_kw_1246_pu

New Load.load_p1rlv2120_1 conn=wye bus1=p1rlv2120.1 kV=0.12 Vminpu=0.8 Vmaxpu=1.2 model=1 kW=9.188058575942842 kvar=1.4142394215506044 Phases=1 yearly=res_kw_1226_pu

New Load.load_p1rlv2120_2 conn=wye bus1=p1rlv2120.2 kV=0.12 Vminpu=0.8 Vmaxpu=1.2 model=1 kW=9.188058575942842 kvar=1.4142394215506044 Phases=1 yearly=res_kw_1226_pu

...